176870


 30 32  0  0  0  0  0  0  0  0999 V2000
   -8.7614   -4.4997    7.6249 N   0  0  0  0  0  0  0  0  0  0  0  0
   -8.6177   -2.2519    6.7685 N   0  0  0  0  0  0  0  0  0  0  0  0
   -7.3164   -2.9129    8.6954 C   0  0  0  0  0  0  0  0  0  0  0  0
   -7.8755   -4.1970    8.5901 C   0  0  0  0  0  0  0  0  0  0  0  0
   -6.0163   -3.5846   10.6259 C   0  0  0  0  0  0  0  0  0  0  0  0
   -6.5628   -4.8596   10.5319 C   0  0  0  0  0  0  0  0  0  0  0  0
   -6.3910   -2.6078    9.7086 C   0  0  0  0  0  0  0  0  0  0  0  0
   -7.7331   -1.9826    7.7472 C   0  0  0  0  0  0  0  0  0  0  0  0
   -7.4826   -5.1552    9.5213 C   0  0  0  0  0  0  0  0  0  0  0  0
   -9.0846   -3.5109    6.7669 C   0  0  0  0  0  0  0  0  0  0  0  0
   -7.2119   -0.6654    7.7897 N   0  0  0  0  0  0  0  0  0  0  0  0
   -6.6400   -0.4944    8.6123 H   0  0  0  0  0  0  0  0  0  0  0  0
   -7.0971    0.3396    6.8164 C   0  0  0  0  0  0  0  0  0  0  0  0
   -8.2376    0.9944    6.3515 C   0  0  0  0  0  0  0  0  0  0  0  0
   -5.8420    0.6834    6.3142 C   0  0  0  0  0  0  0  0  0  0  0  0
   -8.1228    1.9929    5.3843 C   0  0  0  0  0  0  0  0  0  0  0  0
   -5.7272    1.6820    5.3472 C   0  0  0  0  0  0  0  0  0  0  0  0
   -6.8677    2.3366    4.8821 C   0  0  0  0  0  0  0  0  0  0  0  0
   -9.2907    2.6639    4.9075 C   0  0  0  0  0  0  0  0  0  0  0  0
  -10.2724    3.2278    4.5067 C   0  0  0  0  0  0  0  0  0  0  0  0
   -5.1185   -3.2828   11.6037 O   0  0  0  0  0  0  0  0  0  0  0  0
   -4.0133   -2.4581   11.2380 C   0  0  0  0  0  0  0  0  0  0  0  0
   -2.9121   -3.3307   10.6672 C   0  0  0  0  0  0  0  0  0  0  0  0
   -1.7451   -2.5400   10.4769 O   0  0  0  0  0  0  0  0  0  0  0  0
   -1.8848   -1.6646    9.3665 C   0  0  0  0  0  0  0  0  0  0  0  0
   -6.2100   -5.8316   11.4192 O   0  0  0  0  0  0  0  0  0  0  0  0
   -7.1329   -6.9022   11.6084 C   0  0  0  0  0  0  0  0  0  0  0  0
   -6.5782   -7.8556   12.6491 C   0  0  0  0  0  0  0  0  0  0  0  0
   -5.5176   -8.6072   12.0714 O   0  0  0  0  0  0  0  0  0  0  0  0
   -4.7976   -9.3342   13.0571 C   0  0  0  0  0  0  0  0  0  0  0  0
 21  5  1  0
 21 22  1  0
 26  6  1  0
 26 27  1  0
 24 23  1  0
 24 25  1  0
 29 28  1  0
 29 30  1  0
 11  8  1  0
 11 13  1  0
 11 12  1  0
  1  4  2  0
  1 10  1  0
  2  8  1  0
  2 10  2  0
  3  4  1  0
  3  7  1  0
  3  8  2  0
  4  9  1  0
  5  6  1  0
  5  7  2  0
  6  9  2  0
 22 23  1  0
 13 14  2  0
 13 15  1  0
 27 28  1  0
 14 16  1  0
 15 17  2  0
 16 18  2  0
 16 19  1  0
 17 18  1  0
 19 20  3  0
M  END
> <PUBCHEM_COMPOUND_CID>
176870

> <PUBCHEM_CONFORMER_RMSD>
1

> <PUBCHEM_CONFORMER_DIVERSEORDER>
2
33
38
31
11
15
35
8
30
34
26
17
40
39
24
9
21
3
10
29
13
7
36
4
22
5
14
23
18
1
20
25
28
19
12
37
16
6
27
32

> <PUBCHEM_MMFF94_PARTIAL_CHARGES>
37
1 -0.36
10 0.08
11 0.08
12 -0.15
13 0.41
14 -0.15
15 0.28
16 0.1
17 0.28
18 0.47
19 0.28
2 -0.36
20 0.28
21 -0.15
22 -0.15
23 0.07
24 -0.15
25 -0.15
26 0.28
27 0.28
28 -0.07
29 -0.18
3 -0.56
30 0.15
31 0.15
32 0.4
37 0.15
4 -0.56
42 0.15
43 0.15
44 0.15
45 0.15
5 -0.6
52 0.18
6 -0.62
7 -0.62
9 0.31

> <PUBCHEM_EFFECTIVE_ROTOR_COUNT>
10

> <PUBCHEM_PHARMACOPHORE_FEATURES>
11
1 1 acceptor
1 2 acceptor
1 29 hydrophobe
1 3 acceptor
1 4 acceptor
1 5 donor
3 5 7 13 cation
3 6 7 18 cation
6 16 21 22 23 24 25 rings
6 6 7 8 9 13 18 rings
6 8 9 10 11 12 14 rings

> <PUBCHEM_HEAVY_ATOM_COUNT>
29

> <PUBCHEM_ATOM_DEF_STEREO_COUNT>
0

> <PUBCHEM_ATOM_UDEF_STEREO_COUNT>
0

> <PUBCHEM_BOND_DEF_STEREO_COUNT>
0

> <PUBCHEM_BOND_UDEF_STEREO_COUNT>
0

> <PUBCHEM_ISOTOPIC_ATOM_COUNT>
0

> <PUBCHEM_COMPONENT_COUNT>
1

> <PUBCHEM_CACTVS_TAUTO_COUNT>
3

> <PUBCHEM_CONFORMER_ID>
0002B2E600000002

> <PUBCHEM_MMFF94_ENERGY>
109.0345

> <PUBCHEM_FEATURE_SELFOVERLAP>
56.004

> <PUBCHEM_SHAPE_FINGERPRINT>
10050765 1 18265903634409981085
10319926 262 18341897415355152619
1100329 8 18410580586859225941
11135609 12 18339077193841987016
12035758 1 18341335517911506697
12107183 9 18410301306964043347
13140716 1 18341053003157227613
14866123 147 18335989735686148763
15042514 8 18410300215899931757
15131766 46 15624785411136496104
15537594 2 17894632517921483410
1813 80 17967535628270432548
18603816 31 16588306111714570659
20028762 73 18202569458605911511
21033648 29 17560222700922275914
21267235 1 18340215076997820492
21521239 73 13695593226494534760
21792934 111 18271802363463215817
22122407 14 15697993046696727122
23559900 14 18340486767717355157
23569914 152 12110548262754726986
3004659 81 18114474383490966340
3178227 256 18336283258119562097
335352 9 18411426098732582533
3383291 50 18411139121966439187
3882209 13 17264378412770275454
397830 11 18130503136730142786
50009960 94 17684628202304312418
5104073 3 18340486784702110729
5486654 36 18334299802929227327

> <PUBCHEM_SHAPE_MULTIPOLES>
558.39
18.56
3.67
1.58
0.91
1.25
1.1
7.15
9.51
4.62
0.05
-3.57
0.24
1.11

> <PUBCHEM_SHAPE_SELFOVERLAP>
1186.285

> <PUBCHEM_SHAPE_VOLUME>
308.9

> <PUBCHEM_COORDINATE_TYPE>
2
5
10

> <minimizedAffinity>
-7.71204

> <CNNscore>
0.8719571233

> <CNNaffinity>
6.8339905739

> <CNN_VS>
5.9589467049

> <CNNaffinity_variance>
0.0524937212

$$$$
176870


 30 32  0  0  0  0  0  0  0  0999 V2000
  -12.5458   14.9768   -9.0494 N   0  0  0  0  0  0  0  0  0  0  0  0
  -13.6039   14.9499   -6.8845 N   0  0  0  0  0  0  0  0  0  0  0  0
  -11.3094   14.2312   -7.1342 C   0  0  0  0  0  0  0  0  0  0  0  0
  -11.4090   14.5045   -8.5083 C   0  0  0  0  0  0  0  0  0  0  0  0
   -9.0106   13.5129   -7.3944 C   0  0  0  0  0  0  0  0  0  0  0  0
   -9.0968   13.7796   -8.7562 C   0  0  0  0  0  0  0  0  0  0  0  0
  -10.1158   13.7377   -6.5795 C   0  0  0  0  0  0  0  0  0  0  0  0
  -12.4504   14.4776   -6.3754 C   0  0  0  0  0  0  0  0  0  0  0  0
  -10.2875   14.2704   -9.3003 C   0  0  0  0  0  0  0  0  0  0  0  0
  -13.5814   15.1735   -8.2084 C   0  0  0  0  0  0  0  0  0  0  0  0
  -12.4256   14.2259   -4.9810 N   0  0  0  0  0  0  0  0  0  0  0  0
  -11.4966   13.9965   -4.6385 H   0  0  0  0  0  0  0  0  0  0  0  0
  -13.3444   14.4931   -3.9539 C   0  0  0  0  0  0  0  0  0  0  0  0
  -13.1969   15.6339   -3.1649 C   0  0  0  0  0  0  0  0  0  0  0  0
  -14.4052   13.6174   -3.7225 C   0  0  0  0  0  0  0  0  0  0  0  0
  -14.1102   15.8988   -2.1445 C   0  0  0  0  0  0  0  0  0  0  0  0
  -15.3186   13.8824   -2.7021 C   0  0  0  0  0  0  0  0  0  0  0  0
  -15.1709   15.0230   -1.9130 C   0  0  0  0  0  0  0  0  0  0  0  0
  -13.9596   17.0671   -1.3358 C   0  0  0  0  0  0  0  0  0  0  0  0
  -13.8331   18.0491   -0.6562 C   0  0  0  0  0  0  0  0  0  0  0  0
   -7.8573   13.0362   -6.8505 O   0  0  0  0  0  0  0  0  0  0  0  0
   -7.1106   13.9298   -6.0263 C   0  0  0  0  0  0  0  0  0  0  0  0
   -5.6813   13.4327   -5.9257 C   0  0  0  0  0  0  0  0  0  0  0  0
   -5.2322   13.0465   -7.2190 O   0  0  0  0  0  0  0  0  0  0  0  0
   -4.6510   14.1397   -7.9161 C   0  0  0  0  0  0  0  0  0  0  0  0
   -8.0270   13.5672   -9.5728 O   0  0  0  0  0  0  0  0  0  0  0  0
   -7.8565   14.4681  -10.6650 C   0  0  0  0  0  0  0  0  0  0  0  0
   -6.3931   14.4933  -11.0619 C   0  0  0  0  0  0  0  0  0  0  0  0
   -6.2739   14.0912  -12.4212 O   0  0  0  0  0  0  0  0  0  0  0  0
   -5.9887   15.1960  -13.2678 C   0  0  0  0  0  0  0  0  0  0  0  0
 21  5  1  0
 21 22  1  0
 26  6  1  0
 26 27  1  0
 24 23  1  0
 24 25  1  0
 29 28  1  0
 29 30  1  0
 11  8  1  0
 11 13  1  0
 11 12  1  0
  1  4  2  0
  1 10  1  0
  2  8  1  0
  2 10  2  0
  3  4  1  0
  3  7  1  0
  3  8  2  0
  4  9  1  0
  5  6  1  0
  5  7  2  0
  6  9  2  0
 22 23  1  0
 13 14  2  0
 13 15  1  0
 27 28  1  0
 14 16  1  0
 15 17  2  0
 16 18  2  0
 16 19  1  0
 17 18  1  0
 19 20  3  0
M  END
> <PUBCHEM_COMPOUND_CID>
176870

> <PUBCHEM_CONFORMER_RMSD>
1

> <PUBCHEM_CONFORMER_DIVERSEORDER>
2
33
38
31
11
15
35
8
30
34
26
17
40
39
24
9
21
3
10
29
13
7
36
4
22
5
14
23
18
1
20
25
28
19
12
37
16
6
27
32

> <PUBCHEM_MMFF94_PARTIAL_CHARGES>
37
1 -0.36
10 0.08
11 0.08
12 -0.15
13 0.41
14 -0.15
15 0.28
16 0.1
17 0.28
18 0.47
19 0.28
2 -0.36
20 0.28
21 -0.15
22 -0.15
23 0.07
24 -0.15
25 -0.15
26 0.28
27 0.28
28 -0.07
29 -0.18
3 -0.56
30 0.15
31 0.15
32 0.4
37 0.15
4 -0.56
42 0.15
43 0.15
44 0.15
45 0.15
5 -0.6
52 0.18
6 -0.62
7 -0.62
9 0.31

> <PUBCHEM_EFFECTIVE_ROTOR_COUNT>
10

> <PUBCHEM_PHARMACOPHORE_FEATURES>
11
1 1 acceptor
1 2 acceptor
1 29 hydrophobe
1 3 acceptor
1 4 acceptor
1 5 donor
3 5 7 13 cation
3 6 7 18 cation
6 16 21 22 23 24 25 rings
6 6 7 8 9 13 18 rings
6 8 9 10 11 12 14 rings

> <PUBCHEM_HEAVY_ATOM_COUNT>
29

> <PUBCHEM_ATOM_DEF_STEREO_COUNT>
0

> <PUBCHEM_ATOM_UDEF_STEREO_COUNT>
0

> <PUBCHEM_BOND_DEF_STEREO_COUNT>
0

> <PUBCHEM_BOND_UDEF_STEREO_COUNT>
0

> <PUBCHEM_ISOTOPIC_ATOM_COUNT>
0

> <PUBCHEM_COMPONENT_COUNT>
1

> <PUBCHEM_CACTVS_TAUTO_COUNT>
3

> <PUBCHEM_CONFORMER_ID>
0002B2E600000002

> <PUBCHEM_MMFF94_ENERGY>
109.0345

> <PUBCHEM_FEATURE_SELFOVERLAP>
56.004

> <PUBCHEM_SHAPE_FINGERPRINT>
10050765 1 18265903634409981085
10319926 262 18341897415355152619
1100329 8 18410580586859225941
11135609 12 18339077193841987016
12035758 1 18341335517911506697
12107183 9 18410301306964043347
13140716 1 18341053003157227613
14866123 147 18335989735686148763
15042514 8 18410300215899931757
15131766 46 15624785411136496104
15537594 2 17894632517921483410
1813 80 17967535628270432548
18603816 31 16588306111714570659
20028762 73 18202569458605911511
21033648 29 17560222700922275914
21267235 1 18340215076997820492
21521239 73 13695593226494534760
21792934 111 18271802363463215817
22122407 14 15697993046696727122
23559900 14 18340486767717355157
23569914 152 12110548262754726986
3004659 81 18114474383490966340
3178227 256 18336283258119562097
335352 9 18411426098732582533
3383291 50 18411139121966439187
3882209 13 17264378412770275454
397830 11 18130503136730142786
50009960 94 17684628202304312418
5104073 3 18340486784702110729
5486654 36 18334299802929227327

> <PUBCHEM_SHAPE_MULTIPOLES>
558.39
18.56
3.67
1.58
0.91
1.25
1.1
7.15
9.51
4.62
0.05
-3.57
0.24
1.11

> <PUBCHEM_SHAPE_SELFOVERLAP>
1186.285

> <PUBCHEM_SHAPE_VOLUME>
308.9

> <PUBCHEM_COORDINATE_TYPE>
2
5
10

> <minimizedAffinity>
-5.05898

> <CNNscore>
0.6787000299

> <CNNaffinity>
5.7215476036

> <CNN_VS>
3.8832144737

> <CNNaffinity_variance>
0.8534448743

$$$$
176870


 30 32  0  0  0  0  0  0  0  0999 V2000
  -13.1162   15.1850   -8.4661 N   0  0  0  0  0  0  0  0  0  0  0  0
  -14.2482   15.4898   -6.3607 N   0  0  0  0  0  0  0  0  0  0  0  0
  -12.0019   14.5991   -6.4247 C   0  0  0  0  0  0  0  0  0  0  0  0
  -12.0344   14.7093   -7.8245 C   0  0  0  0  0  0  0  0  0  0  0  0
   -9.7508   13.7073   -6.4989 C   0  0  0  0  0  0  0  0  0  0  0  0
   -9.7709   13.8116   -7.8852 C   0  0  0  0  0  0  0  0  0  0  0  0
  -10.8654   14.1004   -5.7646 C   0  0  0  0  0  0  0  0  0  0  0  0
  -13.1486   15.0092   -5.7501 C   0  0  0  0  0  0  0  0  0  0  0  0
  -10.9051   14.3086   -8.5343 C   0  0  0  0  0  0  0  0  0  0  0  0
  -14.1642   15.5489   -7.6996 C   0  0  0  0  0  0  0  0  0  0  0  0
  -13.1898   14.9277   -4.3359 N   0  0  0  0  0  0  0  0  0  0  0  0
  -12.4211   15.4211   -3.8903 H   0  0  0  0  0  0  0  0  0  0  0  0
  -14.2010   14.5507   -3.4381 C   0  0  0  0  0  0  0  0  0  0  0  0
  -14.5150   13.2025   -3.2666 C   0  0  0  0  0  0  0  0  0  0  0  0
  -14.8916   15.5249   -2.7173 C   0  0  0  0  0  0  0  0  0  0  0  0
  -15.5198   12.8286   -2.3743 C   0  0  0  0  0  0  0  0  0  0  0  0
  -15.8964   15.1510   -1.8249 C   0  0  0  0  0  0  0  0  0  0  0  0
  -16.2106   13.8028   -1.6536 C   0  0  0  0  0  0  0  0  0  0  0  0
  -15.8421   11.4478   -2.1983 C   0  0  0  0  0  0  0  0  0  0  0  0
  -16.1130   10.2873   -2.0503 C   0  0  0  0  0  0  0  0  0  0  0  0
   -8.6529   13.2266   -5.8533 O   0  0  0  0  0  0  0  0  0  0  0  0
   -7.6132   14.1582   -5.5590 C   0  0  0  0  0  0  0  0  0  0  0  0
   -6.4458   13.4167   -4.9368 C   0  0  0  0  0  0  0  0  0  0  0  0
   -5.6666   12.8271   -5.9706 O   0  0  0  0  0  0  0  0  0  0  0  0
   -6.1581   11.5418   -6.3244 C   0  0  0  0  0  0  0  0  0  0  0  0
   -8.6906   13.4328   -8.6242 O   0  0  0  0  0  0  0  0  0  0  0  0
   -7.9191   14.4715   -9.2236 C   0  0  0  0  0  0  0  0  0  0  0  0
   -6.4510   14.0966   -9.1611 C   0  0  0  0  0  0  0  0  0  0  0  0
   -5.7419   15.1129   -8.4628 O   0  0  0  0  0  0  0  0  0  0  0  0
   -4.7197   15.6822   -9.2688 C   0  0  0  0  0  0  0  0  0  0  0  0
 21  5  1  0
 21 22  1  0
 26  6  1  0
 26 27  1  0
 24 23  1  0
 24 25  1  0
 29 28  1  0
 29 30  1  0
 11  8  1  0
 11 13  1  0
 11 12  1  0
  1  4  2  0
  1 10  1  0
  2  8  1  0
  2 10  2  0
  3  4  1  0
  3  7  1  0
  3  8  2  0
  4  9  1  0
  5  6  1  0
  5  7  2  0
  6  9  2  0
 22 23  1  0
 13 14  2  0
 13 15  1  0
 27 28  1  0
 14 16  1  0
 15 17  2  0
 16 18  2  0
 16 19  1  0
 17 18  1  0
 19 20  3  0
M  END
> <PUBCHEM_COMPOUND_CID>
176870

> <PUBCHEM_CONFORMER_RMSD>
1

> <PUBCHEM_CONFORMER_DIVERSEORDER>
2
33
38
31
11
15
35
8
30
34
26
17
40
39
24
9
21
3
10
29
13
7
36
4
22
5
14
23
18
1
20
25
28
19
12
37
16
6
27
32

> <PUBCHEM_MMFF94_PARTIAL_CHARGES>
37
1 -0.36
10 0.08
11 0.08
12 -0.15
13 0.41
14 -0.15
15 0.28
16 0.1
17 0.28
18 0.47
19 0.28
2 -0.36
20 0.28
21 -0.15
22 -0.15
23 0.07
24 -0.15
25 -0.15
26 0.28
27 0.28
28 -0.07
29 -0.18
3 -0.56
30 0.15
31 0.15
32 0.4
37 0.15
4 -0.56
42 0.15
43 0.15
44 0.15
45 0.15
5 -0.6
52 0.18
6 -0.62
7 -0.62
9 0.31

> <PUBCHEM_EFFECTIVE_ROTOR_COUNT>
10

> <PUBCHEM_PHARMACOPHORE_FEATURES>
11
1 1 acceptor
1 2 acceptor
1 29 hydrophobe
1 3 acceptor
1 4 acceptor
1 5 donor
3 5 7 13 cation
3 6 7 18 cation
6 16 21 22 23 24 25 rings
6 6 7 8 9 13 18 rings
6 8 9 10 11 12 14 rings

> <PUBCHEM_HEAVY_ATOM_COUNT>
29

> <PUBCHEM_ATOM_DEF_STEREO_COUNT>
0

> <PUBCHEM_ATOM_UDEF_STEREO_COUNT>
0

> <PUBCHEM_BOND_DEF_STEREO_COUNT>
0

> <PUBCHEM_BOND_UDEF_STEREO_COUNT>
0

> <PUBCHEM_ISOTOPIC_ATOM_COUNT>
0

> <PUBCHEM_COMPONENT_COUNT>
1

> <PUBCHEM_CACTVS_TAUTO_COUNT>
3

> <PUBCHEM_CONFORMER_ID>
0002B2E600000002

> <PUBCHEM_MMFF94_ENERGY>
109.0345

> <PUBCHEM_FEATURE_SELFOVERLAP>
56.004

> <PUBCHEM_SHAPE_FINGERPRINT>
10050765 1 18265903634409981085
10319926 262 18341897415355152619
1100329 8 18410580586859225941
11135609 12 18339077193841987016
12035758 1 18341335517911506697
12107183 9 18410301306964043347
13140716 1 18341053003157227613
14866123 147 18335989735686148763
15042514 8 18410300215899931757
15131766 46 15624785411136496104
15537594 2 17894632517921483410
1813 80 17967535628270432548
18603816 31 16588306111714570659
20028762 73 18202569458605911511
21033648 29 17560222700922275914
21267235 1 18340215076997820492
21521239 73 13695593226494534760
21792934 111 18271802363463215817
22122407 14 15697993046696727122
23559900 14 18340486767717355157
23569914 152 12110548262754726986
3004659 81 18114474383490966340
3178227 256 18336283258119562097
335352 9 18411426098732582533
3383291 50 18411139121966439187
3882209 13 17264378412770275454
397830 11 18130503136730142786
50009960 94 17684628202304312418
5104073 3 18340486784702110729
5486654 36 18334299802929227327

> <PUBCHEM_SHAPE_MULTIPOLES>
558.39
18.56
3.67
1.58
0.91
1.25
1.1
7.15
9.51
4.62
0.05
-3.57
0.24
1.11

> <PUBCHEM_SHAPE_SELFOVERLAP>
1186.285

> <PUBCHEM_SHAPE_VOLUME>
308.9

> <PUBCHEM_COORDINATE_TYPE>
2
5
10

> <minimizedAffinity>
-5.20521

> <CNNscore>
0.5202949643

> <CNNaffinity>
5.4959645271

> <CNN_VS>
2.8595225811

> <CNNaffinity_variance>
0.1232837215

$$$$
176870


 30 32  0  0  0  0  0  0  0  0999 V2000
   -8.3822   -2.9384    7.5867 N   0  0  0  0  0  0  0  0  0  0  0  0
   -7.3913   -0.7418    7.5785 N   0  0  0  0  0  0  0  0  0  0  0  0
   -6.5575   -2.4550    9.0663 C   0  0  0  0  0  0  0  0  0  0  0  0
   -7.5230   -3.3310    8.5437 C   0  0  0  0  0  0  0  0  0  0  0  0
   -5.7289   -4.1783   10.5536 C   0  0  0  0  0  0  0  0  0  0  0  0
   -6.6804   -5.0548   10.0441 C   0  0  0  0  0  0  0  0  0  0  0  0
   -5.6644   -2.8765   10.0666 C   0  0  0  0  0  0  0  0  0  0  0  0
   -6.5462   -1.1676    8.5364 C   0  0  0  0  0  0  0  0  0  0  0  0
   -7.5651   -4.6281    9.0492 C   0  0  0  0  0  0  0  0  0  0  0  0
   -8.2700   -1.6654    7.1564 C   0  0  0  0  0  0  0  0  0  0  0  0
   -5.5996   -0.2275    9.0143 N   0  0  0  0  0  0  0  0  0  0  0  0
   -5.1278   -0.5381    9.8591 H   0  0  0  0  0  0  0  0  0  0  0  0
   -4.9951    0.8925    8.4220 C   0  0  0  0  0  0  0  0  0  0  0  0
   -3.6162    1.0768    8.5238 C   0  0  0  0  0  0  0  0  0  0  0  0
   -5.7738    1.8212    7.7315 C   0  0  0  0  0  0  0  0  0  0  0  0
   -3.0162    2.1900    7.9351 C   0  0  0  0  0  0  0  0  0  0  0  0
   -5.1737    2.9343    7.1428 C   0  0  0  0  0  0  0  0  0  0  0  0
   -3.7949    3.1187    7.2448 C   0  0  0  0  0  0  0  0  0  0  0  0
   -1.6038    2.3794    8.0392 C   0  0  0  0  0  0  0  0  0  0  0  0
   -0.4167    2.5386    8.1265 C   0  0  0  0  0  0  0  0  0  0  0  0
   -4.8600   -4.5803   11.5213 O   0  0  0  0  0  0  0  0  0  0  0  0
   -3.4761   -4.6175   11.1764 C   0  0  0  0  0  0  0  0  0  0  0  0
   -2.7318   -5.4466   12.2053 C   0  0  0  0  0  0  0  0  0  0  0  0
   -2.0160   -6.4796   11.5390 O   0  0  0  0  0  0  0  0  0  0  0  0
   -2.2227   -7.7404   12.1607 C   0  0  0  0  0  0  0  0  0  0  0  0
   -6.7613   -6.3342   10.5060 O   0  0  0  0  0  0  0  0  0  0  0  0
   -7.9128   -6.6735   11.2758 C   0  0  0  0  0  0  0  0  0  0  0  0
   -7.5278   -7.7139   12.3098 C   0  0  0  0  0  0  0  0  0  0  0  0
   -6.1129   -7.7210   12.4563 O   0  0  0  0  0  0  0  0  0  0  0  0
   -5.7169   -7.1874   13.7122 C   0  0  0  0  0  0  0  0  0  0  0  0
 21  5  1  0
 21 22  1  0
 26  6  1  0
 26 27  1  0
 24 23  1  0
 24 25  1  0
 29 28  1  0
 29 30  1  0
 11  8  1  0
 11 13  1  0
 11 12  1  0
  1  4  2  0
  1 10  1  0
  2  8  1  0
  2 10  2  0
  3  4  1  0
  3  7  1  0
  3  8  2  0
  4  9  1  0
  5  6  1  0
  5  7  2  0
  6  9  2  0
 22 23  1  0
 13 14  2  0
 13 15  1  0
 27 28  1  0
 14 16  1  0
 15 17  2  0
 16 18  2  0
 16 19  1  0
 17 18  1  0
 19 20  3  0
M  END
> <PUBCHEM_COMPOUND_CID>
176870

> <PUBCHEM_CONFORMER_RMSD>
1

> <PUBCHEM_CONFORMER_DIVERSEORDER>
2
33
38
31
11
15
35
8
30
34
26
17
40
39
24
9
21
3
10
29
13
7
36
4
22
5
14
23
18
1
20
25
28
19
12
37
16
6
27
32

> <PUBCHEM_MMFF94_PARTIAL_CHARGES>
37
1 -0.36
10 0.08
11 0.08
12 -0.15
13 0.41
14 -0.15
15 0.28
16 0.1
17 0.28
18 0.47
19 0.28
2 -0.36
20 0.28
21 -0.15
22 -0.15
23 0.07
24 -0.15
25 -0.15
26 0.28
27 0.28
28 -0.07
29 -0.18
3 -0.56
30 0.15
31 0.15
32 0.4
37 0.15
4 -0.56
42 0.15
43 0.15
44 0.15
45 0.15
5 -0.6
52 0.18
6 -0.62
7 -0.62
9 0.31

> <PUBCHEM_EFFECTIVE_ROTOR_COUNT>
10

> <PUBCHEM_PHARMACOPHORE_FEATURES>
11
1 1 acceptor
1 2 acceptor
1 29 hydrophobe
1 3 acceptor
1 4 acceptor
1 5 donor
3 5 7 13 cation
3 6 7 18 cation
6 16 21 22 23 24 25 rings
6 6 7 8 9 13 18 rings
6 8 9 10 11 12 14 rings

> <PUBCHEM_HEAVY_ATOM_COUNT>
29

> <PUBCHEM_ATOM_DEF_STEREO_COUNT>
0

> <PUBCHEM_ATOM_UDEF_STEREO_COUNT>
0

> <PUBCHEM_BOND_DEF_STEREO_COUNT>
0

> <PUBCHEM_BOND_UDEF_STEREO_COUNT>
0

> <PUBCHEM_ISOTOPIC_ATOM_COUNT>
0

> <PUBCHEM_COMPONENT_COUNT>
1

> <PUBCHEM_CACTVS_TAUTO_COUNT>
3

> <PUBCHEM_CONFORMER_ID>
0002B2E600000002

> <PUBCHEM_MMFF94_ENERGY>
109.0345

> <PUBCHEM_FEATURE_SELFOVERLAP>
56.004

> <PUBCHEM_SHAPE_FINGERPRINT>
10050765 1 18265903634409981085
10319926 262 18341897415355152619
1100329 8 18410580586859225941
11135609 12 18339077193841987016
12035758 1 18341335517911506697
12107183 9 18410301306964043347
13140716 1 18341053003157227613
14866123 147 18335989735686148763
15042514 8 18410300215899931757
15131766 46 15624785411136496104
15537594 2 17894632517921483410
1813 80 17967535628270432548
18603816 31 16588306111714570659
20028762 73 18202569458605911511
21033648 29 17560222700922275914
21267235 1 18340215076997820492
21521239 73 13695593226494534760
21792934 111 18271802363463215817
22122407 14 15697993046696727122
23559900 14 18340486767717355157
23569914 152 12110548262754726986
3004659 81 18114474383490966340
3178227 256 18336283258119562097
335352 9 18411426098732582533
3383291 50 18411139121966439187
3882209 13 17264378412770275454
397830 11 18130503136730142786
50009960 94 17684628202304312418
5104073 3 18340486784702110729
5486654 36 18334299802929227327

> <PUBCHEM_SHAPE_MULTIPOLES>
558.39
18.56
3.67
1.58
0.91
1.25
1.1
7.15
9.51
4.62
0.05
-3.57
0.24
1.11

> <PUBCHEM_SHAPE_SELFOVERLAP>
1186.285

> <PUBCHEM_SHAPE_VOLUME>
308.9

> <PUBCHEM_COORDINATE_TYPE>
2
5
10

> <minimizedAffinity>
-7.34006

> <CNNscore>
0.4224872589

> <CNNaffinity>
6.2860093117

> <CNN_VS>
2.6557588577

> <CNNaffinity_variance>
0.0609252416

$$$$
176870


 30 32  0  0  0  0  0  0  0  0999 V2000
   17.5796   -6.6603   11.1071 N   0  0  0  0  0  0  0  0  0  0  0  0
   17.7937   -4.3847   10.3439 N   0  0  0  0  0  0  0  0  0  0  0  0
   17.8985   -6.2178    8.7716 C   0  0  0  0  0  0  0  0  0  0  0  0
   17.7167   -7.1046    9.8454 C   0  0  0  0  0  0  0  0  0  0  0  0
   18.0024   -8.0613    7.2035 C   0  0  0  0  0  0  0  0  0  0  0  0
   17.8228   -8.9493    8.2582 C   0  0  0  0  0  0  0  0  0  0  0  0
   18.0407   -6.6937    7.4566 C   0  0  0  0  0  0  0  0  0  0  0  0
   17.9277   -4.8634    9.0926 C   0  0  0  0  0  0  0  0  0  0  0  0
   17.6821   -8.4681    9.5634 C   0  0  0  0  0  0  0  0  0  0  0  0
   17.6259   -5.3249   11.2879 C   0  0  0  0  0  0  0  0  0  0  0  0
   18.1075   -3.9083    8.0613 N   0  0  0  0  0  0  0  0  0  0  0  0
   17.2537   -3.7244    7.5413 H   0  0  0  0  0  0  0  0  0  0  0  0
   19.1282   -2.9819    7.7958 C   0  0  0  0  0  0  0  0  0  0  0  0
   19.3598   -2.5542    6.4884 C   0  0  0  0  0  0  0  0  0  0  0  0
   19.9110   -2.4891    8.8397 C   0  0  0  0  0  0  0  0  0  0  0  0
   20.3743   -1.6338    6.2252 C   0  0  0  0  0  0  0  0  0  0  0  0
   20.9254   -1.5686    8.5766 C   0  0  0  0  0  0  0  0  0  0  0  0
   21.1571   -1.1411    7.2693 C   0  0  0  0  0  0  0  0  0  0  0  0
   20.6121   -1.1954    4.8863 C   0  0  0  0  0  0  0  0  0  0  0  0
   20.8119   -0.8268    3.7609 C   0  0  0  0  0  0  0  0  0  0  0  0
   18.1393   -8.5154    5.9275 O   0  0  0  0  0  0  0  0  0  0  0  0
   19.3707   -8.2304    5.2658 C   0  0  0  0  0  0  0  0  0  0  0  0
   20.4061   -9.2565    5.6840 C   0  0  0  0  0  0  0  0  0  0  0  0
   21.6430   -8.9525    5.0505 O   0  0  0  0  0  0  0  0  0  0  0  0
   22.5832  -10.0054    5.2122 C   0  0  0  0  0  0  0  0  0  0  0  0
   17.7818  -10.2926    8.0335 O   0  0  0  0  0  0  0  0  0  0  0  0
   16.4986  -10.8733    7.8103 C   0  0  0  0  0  0  0  0  0  0  0  0
   16.4310  -12.2118    8.5200 C   0  0  0  0  0  0  0  0  0  0  0  0
   15.3020  -12.9336    8.0426 O   0  0  0  0  0  0  0  0  0  0  0  0
   15.6443  -13.7695    6.9458 C   0  0  0  0  0  0  0  0  0  0  0  0
 21  5  1  0
 21 22  1  0
 26  6  1  0
 26 27  1  0
 24 23  1  0
 24 25  1  0
 29 28  1  0
 29 30  1  0
 11  8  1  0
 11 13  1  0
 11 12  1  0
  1  4  2  0
  1 10  1  0
  2  8  1  0
  2 10  2  0
  3  4  1  0
  3  7  1  0
  3  8  2  0
  4  9  1  0
  5  6  1  0
  5  7  2  0
  6  9  2  0
 22 23  1  0
 13 14  2  0
 13 15  1  0
 27 28  1  0
 14 16  1  0
 15 17  2  0
 16 18  2  0
 16 19  1  0
 17 18  1  0
 19 20  3  0
M  END
> <PUBCHEM_COMPOUND_CID>
176870

> <PUBCHEM_CONFORMER_RMSD>
1

> <PUBCHEM_CONFORMER_DIVERSEORDER>
2
33
38
31
11
15
35
8
30
34
26
17
40
39
24
9
21
3
10
29
13
7
36
4
22
5
14
23
18
1
20
25
28
19
12
37
16
6
27
32

> <PUBCHEM_MMFF94_PARTIAL_CHARGES>
37
1 -0.36
10 0.08
11 0.08
12 -0.15
13 0.41
14 -0.15
15 0.28
16 0.1
17 0.28
18 0.47
19 0.28
2 -0.36
20 0.28
21 -0.15
22 -0.15
23 0.07
24 -0.15
25 -0.15
26 0.28
27 0.28
28 -0.07
29 -0.18
3 -0.56
30 0.15
31 0.15
32 0.4
37 0.15
4 -0.56
42 0.15
43 0.15
44 0.15
45 0.15
5 -0.6
52 0.18
6 -0.62
7 -0.62
9 0.31

> <PUBCHEM_EFFECTIVE_ROTOR_COUNT>
10

> <PUBCHEM_PHARMACOPHORE_FEATURES>
11
1 1 acceptor
1 2 acceptor
1 29 hydrophobe
1 3 acceptor
1 4 acceptor
1 5 donor
3 5 7 13 cation
3 6 7 18 cation
6 16 21 22 23 24 25 rings
6 6 7 8 9 13 18 rings
6 8 9 10 11 12 14 rings

> <PUBCHEM_HEAVY_ATOM_COUNT>
29

> <PUBCHEM_ATOM_DEF_STEREO_COUNT>
0

> <PUBCHEM_ATOM_UDEF_STEREO_COUNT>
0

> <PUBCHEM_BOND_DEF_STEREO_COUNT>
0

> <PUBCHEM_BOND_UDEF_STEREO_COUNT>
0

> <PUBCHEM_ISOTOPIC_ATOM_COUNT>
0

> <PUBCHEM_COMPONENT_COUNT>
1

> <PUBCHEM_CACTVS_TAUTO_COUNT>
3

> <PUBCHEM_CONFORMER_ID>
0002B2E600000002

> <PUBCHEM_MMFF94_ENERGY>
109.0345

> <PUBCHEM_FEATURE_SELFOVERLAP>
56.004

> <PUBCHEM_SHAPE_FINGERPRINT>
10050765 1 18265903634409981085
10319926 262 18341897415355152619
1100329 8 18410580586859225941
11135609 12 18339077193841987016
12035758 1 18341335517911506697
12107183 9 18410301306964043347
13140716 1 18341053003157227613
14866123 147 18335989735686148763
15042514 8 18410300215899931757
15131766 46 15624785411136496104
15537594 2 17894632517921483410
1813 80 17967535628270432548
18603816 31 16588306111714570659
20028762 73 18202569458605911511
21033648 29 17560222700922275914
21267235 1 18340215076997820492
21521239 73 13695593226494534760
21792934 111 18271802363463215817
22122407 14 15697993046696727122
23559900 14 18340486767717355157
23569914 152 12110548262754726986
3004659 81 18114474383490966340
3178227 256 18336283258119562097
335352 9 18411426098732582533
3383291 50 18411139121966439187
3882209 13 17264378412770275454
397830 11 18130503136730142786
50009960 94 17684628202304312418
5104073 3 18340486784702110729
5486654 36 18334299802929227327

> <PUBCHEM_SHAPE_MULTIPOLES>
558.39
18.56
3.67
1.58
0.91
1.25
1.1
7.15
9.51
4.62
0.05
-3.57
0.24
1.11

> <PUBCHEM_SHAPE_SELFOVERLAP>
1186.285

> <PUBCHEM_SHAPE_VOLUME>
308.9

> <PUBCHEM_COORDINATE_TYPE>
2
5
10

> <minimizedAffinity>
-5.86109

> <CNNscore>
0.3272004426

> <CNNaffinity>
4.6766467094

> <CNN_VS>
1.5302008390

> <CNNaffinity_variance>
0.9109364152

$$$$
176870


 30 32  0  0  0  0  0  0  0  0999 V2000
    1.4317   -9.4790  -20.2565 N   0  0  0  0  0  0  0  0  0  0  0  0
    1.6827  -11.6379  -19.2159 N   0  0  0  0  0  0  0  0  0  0  0  0
    0.5610   -9.8409  -18.0513 C   0  0  0  0  0  0  0  0  0  0  0  0
    0.7897   -9.0201  -19.1678 C   0  0  0  0  0  0  0  0  0  0  0  0
   -0.5614   -8.0340  -16.8921 C   0  0  0  0  0  0  0  0  0  0  0  0
   -0.3411   -7.2116  -17.9914 C   0  0  0  0  0  0  0  0  0  0  0  0
   -0.1114   -9.3503  -16.9185 C   0  0  0  0  0  0  0  0  0  0  0  0
    1.0363  -11.1463  -18.1419 C   0  0  0  0  0  0  0  0  0  0  0  0
    0.3285   -7.7069  -19.1143 C   0  0  0  0  0  0  0  0  0  0  0  0
    1.8435  -10.7625  -20.2214 C   0  0  0  0  0  0  0  0  0  0  0  0
    0.8425  -12.0337  -17.0541 N   0  0  0  0  0  0  0  0  0  0  0  0
    0.2677  -11.6341  -16.3172 H   0  0  0  0  0  0  0  0  0  0  0  0
    1.0441  -13.4156  -16.9116 C   0  0  0  0  0  0  0  0  0  0  0  0
    2.3392  -13.9273  -16.8312 C   0  0  0  0  0  0  0  0  0  0  0  0
   -0.0513  -14.2771  -16.8504 C   0  0  0  0  0  0  0  0  0  0  0  0
    2.5388  -15.3006  -16.6897 C   0  0  0  0  0  0  0  0  0  0  0  0
    0.1484  -15.6503  -16.7088 C   0  0  0  0  0  0  0  0  0  0  0  0
    1.4435  -16.1620  -16.6287 C   0  0  0  0  0  0  0  0  0  0  0  0
    3.8652  -15.8254  -16.6074 C   0  0  0  0  0  0  0  0  0  0  0  0
    4.9800  -16.2664  -16.5382 C   0  0  0  0  0  0  0  0  0  0  0  0
   -1.2131   -7.5657  -15.7925 O   0  0  0  0  0  0  0  0  0  0  0  0
   -2.5450   -8.0311  -15.5803 C   0  0  0  0  0  0  0  0  0  0  0  0
   -2.6741   -8.5278  -14.1532 C   0  0  0  0  0  0  0  0  0  0  0  0
   -2.9023   -7.4172  -13.2942 O   0  0  0  0  0  0  0  0  0  0  0  0
   -4.2341   -7.4069  -12.7993 C   0  0  0  0  0  0  0  0  0  0  0  0
   -0.7733   -5.9194  -17.9875 O   0  0  0  0  0  0  0  0  0  0  0  0
   -0.0827   -5.0027  -18.8339 C   0  0  0  0  0  0  0  0  0  0  0  0
   -0.7952   -3.6643  -18.7993 C   0  0  0  0  0  0  0  0  0  0  0  0
   -2.1555   -3.8720  -18.4386 O   0  0  0  0  0  0  0  0  0  0  0  0
   -3.0093   -3.8153  -19.5728 C   0  0  0  0  0  0  0  0  0  0  0  0
 21  5  1  0
 21 22  1  0
 26  6  1  0
 26 27  1  0
 24 23  1  0
 24 25  1  0
 29 28  1  0
 29 30  1  0
 11  8  1  0
 11 13  1  0
 11 12  1  0
  1  4  2  0
  1 10  1  0
  2  8  1  0
  2 10  2  0
  3  4  1  0
  3  7  1  0
  3  8  2  0
  4  9  1  0
  5  6  1  0
  5  7  2  0
  6  9  2  0
 22 23  1  0
 13 14  2  0
 13 15  1  0
 27 28  1  0
 14 16  1  0
 15 17  2  0
 16 18  2  0
 16 19  1  0
 17 18  1  0
 19 20  3  0
M  END
> <PUBCHEM_COMPOUND_CID>
176870

> <PUBCHEM_CONFORMER_RMSD>
1

> <PUBCHEM_CONFORMER_DIVERSEORDER>
2
33
38
31
11
15
35
8
30
34
26
17
40
39
24
9
21
3
10
29
13
7
36
4
22
5
14
23
18
1
20
25
28
19
12
37
16
6
27
32

> <PUBCHEM_MMFF94_PARTIAL_CHARGES>
37
1 -0.36
10 0.08
11 0.08
12 -0.15
13 0.41
14 -0.15
15 0.28
16 0.1
17 0.28
18 0.47
19 0.28
2 -0.36
20 0.28
21 -0.15
22 -0.15
23 0.07
24 -0.15
25 -0.15
26 0.28
27 0.28
28 -0.07
29 -0.18
3 -0.56
30 0.15
31 0.15
32 0.4
37 0.15
4 -0.56
42 0.15
43 0.15
44 0.15
45 0.15
5 -0.6
52 0.18
6 -0.62
7 -0.62
9 0.31

> <PUBCHEM_EFFECTIVE_ROTOR_COUNT>
10

> <PUBCHEM_PHARMACOPHORE_FEATURES>
11
1 1 acceptor
1 2 acceptor
1 29 hydrophobe
1 3 acceptor
1 4 acceptor
1 5 donor
3 5 7 13 cation
3 6 7 18 cation
6 16 21 22 23 24 25 rings
6 6 7 8 9 13 18 rings
6 8 9 10 11 12 14 rings

> <PUBCHEM_HEAVY_ATOM_COUNT>
29

> <PUBCHEM_ATOM_DEF_STEREO_COUNT>
0

> <PUBCHEM_ATOM_UDEF_STEREO_COUNT>
0

> <PUBCHEM_BOND_DEF_STEREO_COUNT>
0

> <PUBCHEM_BOND_UDEF_STEREO_COUNT>
0

> <PUBCHEM_ISOTOPIC_ATOM_COUNT>
0

> <PUBCHEM_COMPONENT_COUNT>
1

> <PUBCHEM_CACTVS_TAUTO_COUNT>
3

> <PUBCHEM_CONFORMER_ID>
0002B2E600000002

> <PUBCHEM_MMFF94_ENERGY>
109.0345

> <PUBCHEM_FEATURE_SELFOVERLAP>
56.004

> <PUBCHEM_SHAPE_FINGERPRINT>
10050765 1 18265903634409981085
10319926 262 18341897415355152619
1100329 8 18410580586859225941
11135609 12 18339077193841987016
12035758 1 18341335517911506697
12107183 9 18410301306964043347
13140716 1 18341053003157227613
14866123 147 18335989735686148763
15042514 8 18410300215899931757
15131766 46 15624785411136496104
15537594 2 17894632517921483410
1813 80 17967535628270432548
18603816 31 16588306111714570659
20028762 73 18202569458605911511
21033648 29 17560222700922275914
21267235 1 18340215076997820492
21521239 73 13695593226494534760
21792934 111 18271802363463215817
22122407 14 15697993046696727122
23559900 14 18340486767717355157
23569914 152 12110548262754726986
3004659 81 18114474383490966340
3178227 256 18336283258119562097
335352 9 18411426098732582533
3383291 50 18411139121966439187
3882209 13 17264378412770275454
397830 11 18130503136730142786
50009960 94 17684628202304312418
5104073 3 18340486784702110729
5486654 36 18334299802929227327

> <PUBCHEM_SHAPE_MULTIPOLES>
558.39
18.56
3.67
1.58
0.91
1.25
1.1
7.15
9.51
4.62
0.05
-3.57
0.24
1.11

> <PUBCHEM_SHAPE_SELFOVERLAP>
1186.285

> <PUBCHEM_SHAPE_VOLUME>
308.9

> <PUBCHEM_COORDINATE_TYPE>
2
5
10

> <minimizedAffinity>
-5.15438

> <CNNscore>
0.3222243488

> <CNNaffinity>
4.8770308495

> <CNN_VS>
1.5714980364

> <CNNaffinity_variance>
0.0663663074

$$$$
176870


 30 32  0  0  0  0  0  0  0  0999 V2000
   -1.2128   14.2350    5.0039 N   0  0  0  0  0  0  0  0  0  0  0  0
    0.3987   12.6883    5.9083 N   0  0  0  0  0  0  0  0  0  0  0  0
    0.4389   13.2643    3.5610 C   0  0  0  0  0  0  0  0  0  0  0  0
   -0.6643   14.1048    3.7831 C   0  0  0  0  0  0  0  0  0  0  0  0
    0.4711   13.8476    1.2100 C   0  0  0  0  0  0  0  0  0  0  0  0
   -0.6208   14.6829    1.4174 C   0  0  0  0  0  0  0  0  0  0  0  0
    1.0042   13.1361    2.2803 C   0  0  0  0  0  0  0  0  0  0  0  0
    0.9236   12.5813    4.6731 C   0  0  0  0  0  0  0  0  0  0  0  0
   -1.1774   14.8051    2.6941 C   0  0  0  0  0  0  0  0  0  0  0  0
   -0.6520   13.5196    5.9999 C   0  0  0  0  0  0  0  0  0  0  0  0
    2.0352   11.7146    4.5264 N   0  0  0  0  0  0  0  0  0  0  0  0
    2.8831   12.2040    4.2537 H   0  0  0  0  0  0  0  0  0  0  0  0
    2.2668   10.3932    4.9397 C   0  0  0  0  0  0  0  0  0  0  0  0
    1.2084    9.6108    5.4018 C   0  0  0  0  0  0  0  0  0  0  0  0
    3.5557    9.8625    4.8880 C   0  0  0  0  0  0  0  0  0  0  0  0
    1.4393    8.2979    5.8124 C   0  0  0  0  0  0  0  0  0  0  0  0
    3.7865    8.5495    5.2984 C   0  0  0  0  0  0  0  0  0  0  0  0
    2.7282    7.7673    5.7608 C   0  0  0  0  0  0  0  0  0  0  0  0
    0.3556    7.4960    6.2861 C   0  0  0  0  0  0  0  0  0  0  0  0
   -0.5550    6.8221    6.6843 C   0  0  0  0  0  0  0  0  0  0  0  0
    1.0243   13.7200   -0.0273 O   0  0  0  0  0  0  0  0  0  0  0  0
    1.0518   14.8857   -0.8494 C   0  0  0  0  0  0  0  0  0  0  0  0
    2.3527   15.6281   -0.6119 C   0  0  0  0  0  0  0  0  0  0  0  0
    3.3563   14.6952   -0.2299 O   0  0  0  0  0  0  0  0  0  0  0  0
    3.9681   15.0628    0.9987 C   0  0  0  0  0  0  0  0  0  0  0  0
   -1.1588   15.3893    0.3838 O   0  0  0  0  0  0  0  0  0  0  0  0
   -2.1968   16.3140    0.7018 C   0  0  0  0  0  0  0  0  0  0  0  0
   -3.4720   15.8866    0.0010 C   0  0  0  0  0  0  0  0  0  0  0  0
   -3.4640   14.4728   -0.1556 O   0  0  0  0  0  0  0  0  0  0  0  0
   -4.7782   13.9357   -0.1024 C   0  0  0  0  0  0  0  0  0  0  0  0
 21  5  1  0
 21 22  1  0
 26  6  1  0
 26 27  1  0
 24 23  1  0
 24 25  1  0
 29 28  1  0
 29 30  1  0
 11  8  1  0
 11 13  1  0
 11 12  1  0
  1  4  2  0
  1 10  1  0
  2  8  1  0
  2 10  2  0
  3  4  1  0
  3  7  1  0
  3  8  2  0
  4  9  1  0
  5  6  1  0
  5  7  2  0
  6  9  2  0
 22 23  1  0
 13 14  2  0
 13 15  1  0
 27 28  1  0
 14 16  1  0
 15 17  2  0
 16 18  2  0
 16 19  1  0
 17 18  1  0
 19 20  3  0
M  END
> <PUBCHEM_COMPOUND_CID>
176870

> <PUBCHEM_CONFORMER_RMSD>
1

> <PUBCHEM_CONFORMER_DIVERSEORDER>
2
33
38
31
11
15
35
8
30
34
26
17
40
39
24
9
21
3
10
29
13
7
36
4
22
5
14
23
18
1
20
25
28
19
12
37
16
6
27
32

> <PUBCHEM_MMFF94_PARTIAL_CHARGES>
37
1 -0.36
10 0.08
11 0.08
12 -0.15
13 0.41
14 -0.15
15 0.28
16 0.1
17 0.28
18 0.47
19 0.28
2 -0.36
20 0.28
21 -0.15
22 -0.15
23 0.07
24 -0.15
25 -0.15
26 0.28
27 0.28
28 -0.07
29 -0.18
3 -0.56
30 0.15
31 0.15
32 0.4
37 0.15
4 -0.56
42 0.15
43 0.15
44 0.15
45 0.15
5 -0.6
52 0.18
6 -0.62
7 -0.62
9 0.31

> <PUBCHEM_EFFECTIVE_ROTOR_COUNT>
10

> <PUBCHEM_PHARMACOPHORE_FEATURES>
11
1 1 acceptor
1 2 acceptor
1 29 hydrophobe
1 3 acceptor
1 4 acceptor
1 5 donor
3 5 7 13 cation
3 6 7 18 cation
6 16 21 22 23 24 25 rings
6 6 7 8 9 13 18 rings
6 8 9 10 11 12 14 rings

> <PUBCHEM_HEAVY_ATOM_COUNT>
29

> <PUBCHEM_ATOM_DEF_STEREO_COUNT>
0

> <PUBCHEM_ATOM_UDEF_STEREO_COUNT>
0

> <PUBCHEM_BOND_DEF_STEREO_COUNT>
0

> <PUBCHEM_BOND_UDEF_STEREO_COUNT>
0

> <PUBCHEM_ISOTOPIC_ATOM_COUNT>
0

> <PUBCHEM_COMPONENT_COUNT>
1

> <PUBCHEM_CACTVS_TAUTO_COUNT>
3

> <PUBCHEM_CONFORMER_ID>
0002B2E600000002

> <PUBCHEM_MMFF94_ENERGY>
109.0345

> <PUBCHEM_FEATURE_SELFOVERLAP>
56.004

> <PUBCHEM_SHAPE_FINGERPRINT>
10050765 1 18265903634409981085
10319926 262 18341897415355152619
1100329 8 18410580586859225941
11135609 12 18339077193841987016
12035758 1 18341335517911506697
12107183 9 18410301306964043347
13140716 1 18341053003157227613
14866123 147 18335989735686148763
15042514 8 18410300215899931757
15131766 46 15624785411136496104
15537594 2 17894632517921483410
1813 80 17967535628270432548
18603816 31 16588306111714570659
20028762 73 18202569458605911511
21033648 29 17560222700922275914
21267235 1 18340215076997820492
21521239 73 13695593226494534760
21792934 111 18271802363463215817
22122407 14 15697993046696727122
23559900 14 18340486767717355157
23569914 152 12110548262754726986
3004659 81 18114474383490966340
3178227 256 18336283258119562097
335352 9 18411426098732582533
3383291 50 18411139121966439187
3882209 13 17264378412770275454
397830 11 18130503136730142786
50009960 94 17684628202304312418
5104073 3 18340486784702110729
5486654 36 18334299802929227327

> <PUBCHEM_SHAPE_MULTIPOLES>
558.39
18.56
3.67
1.58
0.91
1.25
1.1
7.15
9.51
4.62
0.05
-3.57
0.24
1.11

> <PUBCHEM_SHAPE_SELFOVERLAP>
1186.285

> <PUBCHEM_SHAPE_VOLUME>
308.9

> <PUBCHEM_COORDINATE_TYPE>
2
5
10

> <minimizedAffinity>
-6.20196

> <CNNscore>
0.2739842832

> <CNNaffinity>
4.9511466026

> <CNN_VS>
1.3565363884

> <CNNaffinity_variance>
0.3606972694

$$$$
176870


 30 32  0  0  0  0  0  0  0  0999 V2000
  -12.3535   14.8418   -8.8494 N   0  0  0  0  0  0  0  0  0  0  0  0
  -10.1897   14.2581   -7.9639 N   0  0  0  0  0  0  0  0  0  0  0  0
  -12.1039   14.4373   -6.4985 C   0  0  0  0  0  0  0  0  0  0  0  0
  -12.8863   14.7681   -7.6170 C   0  0  0  0  0  0  0  0  0  0  0  0
  -14.0279   14.6194   -5.0381 C   0  0  0  0  0  0  0  0  0  0  0  0
  -14.8130   14.9478   -6.1376 C   0  0  0  0  0  0  0  0  0  0  0  0
  -12.6718   14.3632   -5.2148 C   0  0  0  0  0  0  0  0  0  0  0  0
  -10.7554   14.1930   -6.7438 C   0  0  0  0  0  0  0  0  0  0  0  0
  -14.2407   15.0195   -7.4112 C   0  0  0  0  0  0  0  0  0  0  0  0
  -11.0343   14.5832   -8.9558 C   0  0  0  0  0  0  0  0  0  0  0  0
   -9.9029   13.8532   -5.6639 N   0  0  0  0  0  0  0  0  0  0  0  0
  -10.4142   13.5777   -4.8299 H   0  0  0  0  0  0  0  0  0  0  0  0
   -8.5321   13.5586   -5.5959 C   0  0  0  0  0  0  0  0  0  0  0  0
   -7.5936   14.5896   -5.6416 C   0  0  0  0  0  0  0  0  0  0  0  0
   -8.1085   12.2344   -5.4825 C   0  0  0  0  0  0  0  0  0  0  0  0
   -6.2316   14.2961   -5.5740 C   0  0  0  0  0  0  0  0  0  0  0  0
   -6.7466   11.9411   -5.4148 C   0  0  0  0  0  0  0  0  0  0  0  0
   -5.8081   12.9720   -5.4608 C   0  0  0  0  0  0  0  0  0  0  0  0
   -5.2697   15.3517   -5.6209 C   0  0  0  0  0  0  0  0  0  0  0  0
   -4.4613   16.2388   -5.6602 C   0  0  0  0  0  0  0  0  0  0  0  0
  -14.5719   14.5444   -3.7924 O   0  0  0  0  0  0  0  0  0  0  0  0
  -14.8632   13.2418   -3.2887 C   0  0  0  0  0  0  0  0  0  0  0  0
  -16.2238   13.2630   -2.6192 C   0  0  0  0  0  0  0  0  0  0  0  0
  -16.5069   11.9684   -2.1022 O   0  0  0  0  0  0  0  0  0  0  0  0
  -17.8280   11.8919   -1.5850 C   0  0  0  0  0  0  0  0  0  0  0  0
  -16.1432   15.2023   -5.9878 O   0  0  0  0  0  0  0  0  0  0  0  0
  -17.0429   14.4423   -6.7919 C   0  0  0  0  0  0  0  0  0  0  0  0
  -17.0331   13.0016   -6.3186 C   0  0  0  0  0  0  0  0  0  0  0  0
  -16.8809   12.1446   -7.4437 O   0  0  0  0  0  0  0  0  0  0  0  0
  -17.6855   10.9798   -7.3236 C   0  0  0  0  0  0  0  0  0  0  0  0
 21  5  1  0
 21 22  1  0
 26  6  1  0
 26 27  1  0
 24 23  1  0
 24 25  1  0
 29 28  1  0
 29 30  1  0
 11  8  1  0
 11 13  1  0
 11 12  1  0
  1  4  2  0
  1 10  1  0
  2  8  1  0
  2 10  2  0
  3  4  1  0
  3  7  1  0
  3  8  2  0
  4  9  1  0
  5  6  1  0
  5  7  2  0
  6  9  2  0
 22 23  1  0
 13 14  2  0
 13 15  1  0
 27 28  1  0
 14 16  1  0
 15 17  2  0
 16 18  2  0
 16 19  1  0
 17 18  1  0
 19 20  3  0
M  END
> <PUBCHEM_COMPOUND_CID>
176870

> <PUBCHEM_CONFORMER_RMSD>
1

> <PUBCHEM_CONFORMER_DIVERSEORDER>
2
33
38
31
11
15
35
8
30
34
26
17
40
39
24
9
21
3
10
29
13
7
36
4
22
5
14
23
18
1
20
25
28
19
12
37
16
6
27
32

> <PUBCHEM_MMFF94_PARTIAL_CHARGES>
37
1 -0.36
10 0.08
11 0.08
12 -0.15
13 0.41
14 -0.15
15 0.28
16 0.1
17 0.28
18 0.47
19 0.28
2 -0.36
20 0.28
21 -0.15
22 -0.15
23 0.07
24 -0.15
25 -0.15
26 0.28
27 0.28
28 -0.07
29 -0.18
3 -0.56
30 0.15
31 0.15
32 0.4
37 0.15
4 -0.56
42 0.15
43 0.15
44 0.15
45 0.15
5 -0.6
52 0.18
6 -0.62
7 -0.62
9 0.31

> <PUBCHEM_EFFECTIVE_ROTOR_COUNT>
10

> <PUBCHEM_PHARMACOPHORE_FEATURES>
11
1 1 acceptor
1 2 acceptor
1 29 hydrophobe
1 3 acceptor
1 4 acceptor
1 5 donor
3 5 7 13 cation
3 6 7 18 cation
6 16 21 22 23 24 25 rings
6 6 7 8 9 13 18 rings
6 8 9 10 11 12 14 rings

> <PUBCHEM_HEAVY_ATOM_COUNT>
29

> <PUBCHEM_ATOM_DEF_STEREO_COUNT>
0

> <PUBCHEM_ATOM_UDEF_STEREO_COUNT>
0

> <PUBCHEM_BOND_DEF_STEREO_COUNT>
0

> <PUBCHEM_BOND_UDEF_STEREO_COUNT>
0

> <PUBCHEM_ISOTOPIC_ATOM_COUNT>
0

> <PUBCHEM_COMPONENT_COUNT>
1

> <PUBCHEM_CACTVS_TAUTO_COUNT>
3

> <PUBCHEM_CONFORMER_ID>
0002B2E600000002

> <PUBCHEM_MMFF94_ENERGY>
109.0345

> <PUBCHEM_FEATURE_SELFOVERLAP>
56.004

> <PUBCHEM_SHAPE_FINGERPRINT>
10050765 1 18265903634409981085
10319926 262 18341897415355152619
1100329 8 18410580586859225941
11135609 12 18339077193841987016
12035758 1 18341335517911506697
12107183 9 18410301306964043347
13140716 1 18341053003157227613
14866123 147 18335989735686148763
15042514 8 18410300215899931757
15131766 46 15624785411136496104
15537594 2 17894632517921483410
1813 80 17967535628270432548
18603816 31 16588306111714570659
20028762 73 18202569458605911511
21033648 29 17560222700922275914
21267235 1 18340215076997820492
21521239 73 13695593226494534760
21792934 111 18271802363463215817
22122407 14 15697993046696727122
23559900 14 18340486767717355157
23569914 152 12110548262754726986
3004659 81 18114474383490966340
3178227 256 18336283258119562097
335352 9 18411426098732582533
3383291 50 18411139121966439187
3882209 13 17264378412770275454
397830 11 18130503136730142786
50009960 94 17684628202304312418
5104073 3 18340486784702110729
5486654 36 18334299802929227327

> <PUBCHEM_SHAPE_MULTIPOLES>
558.39
18.56
3.67
1.58
0.91
1.25
1.1
7.15
9.51
4.62
0.05
-3.57
0.24
1.11

> <PUBCHEM_SHAPE_SELFOVERLAP>
1186.285

> <PUBCHEM_SHAPE_VOLUME>
308.9

> <PUBCHEM_COORDINATE_TYPE>
2
5
10

> <minimizedAffinity>
-4.62703

> <CNNscore>
0.2240881622

> <CNNaffinity>
5.0504336357

> <CNN_VS>
1.1317423582

> <CNNaffinity_variance>
0.1035715342

$$$$
176870


 30 32  0  0  0  0  0  0  0  0999 V2000
  -24.0431    5.4617    5.6278 N   0  0  0  0  0  0  0  0  0  0  0  0
  -23.6374    3.7527    3.9781 N   0  0  0  0  0  0  0  0  0  0  0  0
  -24.4161    3.1599    6.1885 C   0  0  0  0  0  0  0  0  0  0  0  0
  -24.4137    4.5251    6.5185 C   0  0  0  0  0  0  0  0  0  0  0  0
  -25.1965    2.5756    8.4061 C   0  0  0  0  0  0  0  0  0  0  0  0
  -25.1984    3.9241    8.7447 C   0  0  0  0  0  0  0  0  0  0  0  0
  -24.8057    2.1894    7.1278 C   0  0  0  0  0  0  0  0  0  0  0  0
  -24.0145    2.8408    4.8942 C   0  0  0  0  0  0  0  0  0  0  0  0
  -24.8096    4.8834    7.8048 C   0  0  0  0  0  0  0  0  0  0  0  0
  -23.6748    5.0248    4.4064 C   0  0  0  0  0  0  0  0  0  0  0  0
  -23.9914    1.4832    4.4883 N   0  0  0  0  0  0  0  0  0  0  0  0
  -24.8570    1.1902    4.0436 H   0  0  0  0  0  0  0  0  0  0  0  0
  -22.9457    0.5606    4.3272 C   0  0  0  0  0  0  0  0  0  0  0  0
  -22.7565   -0.0723    3.0986 C   0  0  0  0  0  0  0  0  0  0  0  0
  -22.0958    0.2767    5.3962 C   0  0  0  0  0  0  0  0  0  0  0  0
  -21.7173   -0.9890    2.9393 C   0  0  0  0  0  0  0  0  0  0  0  0
  -21.0566   -0.6399    5.2367 C   0  0  0  0  0  0  0  0  0  0  0  0
  -20.8675   -1.2729    4.0083 C   0  0  0  0  0  0  0  0  0  0  0  0
  -21.5230   -1.6377    1.6811 C   0  0  0  0  0  0  0  0  0  0  0  0
  -21.3598   -2.1831    0.6237 C   0  0  0  0  0  0  0  0  0  0  0  0
  -25.5740    1.6307    9.3105 O   0  0  0  0  0  0  0  0  0  0  0  0
  -26.7513    0.8816    9.0134 C   0  0  0  0  0  0  0  0  0  0  0  0
  -27.6199    0.8119   10.2546 C   0  0  0  0  0  0  0  0  0  0  0  0
  -27.0152   -0.0672   11.1953 O   0  0  0  0  0  0  0  0  0  0  0  0
  -27.4727    0.1890   12.5159 C   0  0  0  0  0  0  0  0  0  0  0  0
  -25.5777    4.3250    9.9905 O   0  0  0  0  0  0  0  0  0  0  0  0
  -24.5507    4.7974   10.8599 C   0  0  0  0  0  0  0  0  0  0  0  0
  -24.9267    6.1765   11.3664 C   0  0  0  0  0  0  0  0  0  0  0  0
  -26.0312    6.6623   10.6131 O   0  0  0  0  0  0  0  0  0  0  0  0
  -25.7340    7.9080    9.9977 C   0  0  0  0  0  0  0  0  0  0  0  0
 21  5  1  0
 21 22  1  0
 26  6  1  0
 26 27  1  0
 24 23  1  0
 24 25  1  0
 29 28  1  0
 29 30  1  0
 11  8  1  0
 11 13  1  0
 11 12  1  0
  1  4  2  0
  1 10  1  0
  2  8  1  0
  2 10  2  0
  3  4  1  0
  3  7  1  0
  3  8  2  0
  4  9  1  0
  5  6  1  0
  5  7  2  0
  6  9  2  0
 22 23  1  0
 13 14  2  0
 13 15  1  0
 27 28  1  0
 14 16  1  0
 15 17  2  0
 16 18  2  0
 16 19  1  0
 17 18  1  0
 19 20  3  0
M  END
> <PUBCHEM_COMPOUND_CID>
176870

> <PUBCHEM_CONFORMER_RMSD>
1

> <PUBCHEM_CONFORMER_DIVERSEORDER>
2
33
38
31
11
15
35
8
30
34
26
17
40
39
24
9
21
3
10
29
13
7
36
4
22
5
14
23
18
1
20
25
28
19
12
37
16
6
27
32

> <PUBCHEM_MMFF94_PARTIAL_CHARGES>
37
1 -0.36
10 0.08
11 0.08
12 -0.15
13 0.41
14 -0.15
15 0.28
16 0.1
17 0.28
18 0.47
19 0.28
2 -0.36
20 0.28
21 -0.15
22 -0.15
23 0.07
24 -0.15
25 -0.15
26 0.28
27 0.28
28 -0.07
29 -0.18
3 -0.56
30 0.15
31 0.15
32 0.4
37 0.15
4 -0.56
42 0.15
43 0.15
44 0.15
45 0.15
5 -0.6
52 0.18
6 -0.62
7 -0.62
9 0.31

> <PUBCHEM_EFFECTIVE_ROTOR_COUNT>
10

> <PUBCHEM_PHARMACOPHORE_FEATURES>
11
1 1 acceptor
1 2 acceptor
1 29 hydrophobe
1 3 acceptor
1 4 acceptor
1 5 donor
3 5 7 13 cation
3 6 7 18 cation
6 16 21 22 23 24 25 rings
6 6 7 8 9 13 18 rings
6 8 9 10 11 12 14 rings

> <PUBCHEM_HEAVY_ATOM_COUNT>
29

> <PUBCHEM_ATOM_DEF_STEREO_COUNT>
0

> <PUBCHEM_ATOM_UDEF_STEREO_COUNT>
0

> <PUBCHEM_BOND_DEF_STEREO_COUNT>
0

> <PUBCHEM_BOND_UDEF_STEREO_COUNT>
0

> <PUBCHEM_ISOTOPIC_ATOM_COUNT>
0

> <PUBCHEM_COMPONENT_COUNT>
1

> <PUBCHEM_CACTVS_TAUTO_COUNT>
3

> <PUBCHEM_CONFORMER_ID>
0002B2E600000002

> <PUBCHEM_MMFF94_ENERGY>
109.0345

> <PUBCHEM_FEATURE_SELFOVERLAP>
56.004

> <PUBCHEM_SHAPE_FINGERPRINT>
10050765 1 18265903634409981085
10319926 262 18341897415355152619
1100329 8 18410580586859225941
11135609 12 18339077193841987016
12035758 1 18341335517911506697
12107183 9 18410301306964043347
13140716 1 18341053003157227613
14866123 147 18335989735686148763
15042514 8 18410300215899931757
15131766 46 15624785411136496104
15537594 2 17894632517921483410
1813 80 17967535628270432548
18603816 31 16588306111714570659
20028762 73 18202569458605911511
21033648 29 17560222700922275914
21267235 1 18340215076997820492
21521239 73 13695593226494534760
21792934 111 18271802363463215817
22122407 14 15697993046696727122
23559900 14 18340486767717355157
23569914 152 12110548262754726986
3004659 81 18114474383490966340
3178227 256 18336283258119562097
335352 9 18411426098732582533
3383291 50 18411139121966439187
3882209 13 17264378412770275454
397830 11 18130503136730142786
50009960 94 17684628202304312418
5104073 3 18340486784702110729
5486654 36 18334299802929227327

> <PUBCHEM_SHAPE_MULTIPOLES>
558.39
18.56
3.67
1.58
0.91
1.25
1.1
7.15
9.51
4.62
0.05
-3.57
0.24
1.11

> <PUBCHEM_SHAPE_SELFOVERLAP>
1186.285

> <PUBCHEM_SHAPE_VOLUME>
308.9

> <PUBCHEM_COORDINATE_TYPE>
2
5
10

> <minimizedAffinity>
-5.65115

> <CNNscore>
0.2088114321

> <CNNaffinity>
5.4027709961

> <CNN_VS>
1.1281603575

> <CNNaffinity_variance>
0.1027987003

$$$$
