71496458


 39 42  0  0  0  0  0  0  0  0999 V2000
   -4.9763   -0.3416    8.9716 C   0  0  0  0  0  0  0  0  0  0  0  0
   -4.4880    0.2681    8.3473 C   0  0  0  0  0  0  0  0  0  0  0  0
   -5.7659   -0.8621    8.6465 C   0  0  0  0  0  0  0  0  0  0  0  0
   -5.5788   -0.1631    7.0729 C   0  0  0  0  0  0  0  0  0  0  0  0
   -6.0672   -0.7728    7.6972 C   0  0  0  0  0  0  0  0  0  0  0  0
   -4.7892    0.3574    7.3980 C   0  0  0  0  0  0  0  0  0  0  0  0
   -2.9034    0.5299    7.1554 O   0  0  0  0  0  0  0  0  0  0  0  0
   -3.6984    0.7885    8.6724 N   0  0  0  0  0  0  0  0  0  0  0  0
   -2.9060    0.9194    8.0764 C   0  0  0  0  0  0  0  0  0  0  0  0
   -3.7000    1.0301    9.2435 H   0  0  0  0  0  0  0  0  0  0  0  0
   -2.1165    1.4399    8.4016 C   0  0  0  0  0  0  0  0  0  0  0  0
   -1.8924    2.3208    7.9849 C   0  0  0  0  0  0  0  0  0  0  0  0
   -6.8567   -1.2933    7.3721 O   0  0  0  0  0  0  0  0  0  0  0  0
   -7.3387   -1.9109    7.9936 C   0  0  0  0  0  0  0  0  0  0  0  0
   -4.6751   -0.4308    9.9210 N   0  0  0  0  0  0  0  0  0  0  0  0
   -4.5819    0.3830   10.4946 C   0  0  0  0  0  0  0  0  0  0  0  0
   -4.4670   -1.3340   10.2968 C   0  0  0  0  0  0  0  0  0  0  0  0
   -3.7902   -1.9180    9.8487 C   0  0  0  0  0  0  0  0  0  0  0  0
   -3.4034   -2.7003   10.3370 N   0  0  0  0  0  0  0  0  0  0  0  0
   -2.6387   -2.5676   10.9676 C   0  0  0  0  0  0  0  0  0  0  0  0
   -3.7812   -3.6152   10.1948 C   0  0  0  0  0  0  0  0  0  0  0  0
   -5.8800   -0.0739    6.1235 N   0  0  0  0  0  0  0  0  0  0  0  0
   -5.8580   -0.5637    5.7440 H   0  0  0  0  0  0  0  0  0  0  0  0
   -7.1997    0.9863    5.7566 N   0  0  0  0  0  0  0  0  0  0  0  0
   -5.5702    1.5034    5.4785 N   0  0  0  0  0  0  0  0  0  0  0  0
   -7.5363    1.8654    5.4193 C   0  0  0  0  0  0  0  0  0  0  0  0
   -6.2167    0.8053    5.7862 C   0  0  0  0  0  0  0  0  0  0  0  0
   -6.8899    2.5636    5.1115 C   0  0  0  0  0  0  0  0  0  0  0  0
   -5.9068    2.3825    5.1411 C   0  0  0  0  0  0  0  0  0  0  0  0
   -9.9564    2.6216    4.9490 N   0  0  0  0  0  0  0  0  0  0  0  0
   -9.2005    1.6716    6.0091 C   0  0  0  0  0  0  0  0  0  0  0  0
  -10.0934    2.0290    5.7353 C   0  0  0  0  0  0  0  0  0  0  0  0
   -8.5193    2.0464    5.3897 C   0  0  0  0  0  0  0  0  0  0  0  0
   -8.9855    2.6323    4.7359 C   0  0  0  0  0  0  0  0  0  0  0  0
   -9.1286    1.0502    6.7893 C   0  0  0  0  0  0  0  0  0  0  0  0
  -10.9144    1.7650    6.2417 C   0  0  0  0  0  0  0  0  0  0  0  0
  -10.6708    3.1201    4.4580 C   0  0  0  0  0  0  0  0  0  0  0  0
   -9.9495    0.7862    7.2957 C   0  0  0  0  0  0  0  0  0  0  0  0
  -10.8424    1.1436    7.0218 C   0  0  0  0  0  0  0  0  0  0  0  0
 13  5  1  0
 13 14  1  0
  7  9  2  0
 15 17  1  0
 15  1  1  0
 15 16  1  0
 30 32  1  0
 30 34  1  0
 30 37  1  0
 19 18  1  0
 19 20  1  0
 19 21  1  0
 22  4  1  0
 22 27  1  0
 22 23  1  0
  8  2  1  0
  8  9  1  0
  8 10  1  0
 24 26  2  0
 24 27  1  0
 25 27  2  0
 25 29  1  0
 17 18  1  0
  1  2  2  0
  1  3  1  0
 31 32  2  0
 31 33  1  0
 31 35  1  0
 32 36  1  0
 33 34  2  0
 33 26  1  0
  2  6  1  0
  3  5  2  0
  4  5  1  0
  4  6  2  0
 26 28  1  0
 35 38  2  0
 36 39  2  0
 38 39  1  0
 28 29  2  0
  9 11  1  0
 11 12  2  0
M  END
> <PUBCHEM_COMPOUND_CID>
71496458

> <PUBCHEM_COMPOUND_CANONICALIZED>
1

> <PUBCHEM_CACTVS_COMPLEXITY>
752

> <PUBCHEM_CACTVS_HBOND_ACCEPTOR>
7

> <PUBCHEM_CACTVS_HBOND_DONOR>
2

> <PUBCHEM_CACTVS_ROTATABLE_BOND>
10

> <PUBCHEM_CACTVS_SUBSKEYS>
AAADcfB7sAAAAAAAAAAAAAAAAAAAAWAAAAA8YIAAAAAAAFgB/AAAHgAQAAAADAzBngY/1vfMFACoAzV3dACCiCkxIqAJ2CA/fNiObuLE+duVNChu1BvY6Kew0MMOgECAAgQCECAAgQAECAQgQAAAAAAAAA==

> <PUBCHEM_IUPAC_OPENEYE_NAME>
N-[2-[2-(dimethylamino)ethyl-methyl-amino]-4-methoxy-5-[[4-(1-methylindol-3-yl)pyrimidin-2-yl]amino]phenyl]prop-2-enamide

> <PUBCHEM_IUPAC_CAS_NAME>
N-[2-[2-(dimethylamino)ethyl-methylamino]-4-methoxy-5-[[4-(1-methyl-3-indolyl)-2-pyrimidinyl]amino]phenyl]-2-propenamide

> <PUBCHEM_IUPAC_NAME_MARKUP>
<I>N</I>-[2-[2-(dimethylamino)ethyl-methylamino]-4-methoxy-5-[[4-(1-methylindol-3-yl)pyrimidin-2-yl]amino]phenyl]prop-2-enamide

> <PUBCHEM_IUPAC_NAME>
N-[2-[2-(dimethylamino)ethyl-methylamino]-4-methoxy-5-[[4-(1-methylindol-3-yl)pyrimidin-2-yl]amino]phenyl]prop-2-enamide

> <PUBCHEM_IUPAC_SYSTEMATIC_NAME>
N-[2-[2-(dimethylamino)ethyl-methyl-amino]-4-methoxy-5-[[4-(1-methylindol-3-yl)pyrimidin-2-yl]amino]phenyl]prop-2-enamide

> <PUBCHEM_IUPAC_TRADITIONAL_NAME>
N-[2-[2-(dimethylamino)ethyl-methyl-amino]-4-methoxy-5-[[4-(1-methylindol-3-yl)pyrimidin-2-yl]amino]phenyl]acrylamide

> <PUBCHEM_IUPAC_INCHI>
InChI=1S/C28H33N7O2/c1-7-27(36)30-22-16-23(26(37-6)17-25(22)34(4)15-14-33(2)3)32-28-29-13-12-21(31-28)20-18-35(5)24-11-9-8-10-19(20)24/h7-13,16-18H,1,14-15H2,2-6H3,(H,30,36)(H,29,31,32)

> <PUBCHEM_IUPAC_INCHIKEY>
DUYJMQONPNNFPI-UHFFFAOYSA-N

> <PUBCHEM_XLOGP3_AA>
3.7

> <PUBCHEM_EXACT_MASS>
499.26957332

> <PUBCHEM_MOLECULAR_FORMULA>
C28H33N7O2

> <PUBCHEM_MOLECULAR_WEIGHT>
499.6

> <PUBCHEM_REFERENCE_STANDARDIZATION>
Bypass - this structure was created from CID 78357807

> <PUBCHEM_SMILES>
CN1C=C(C2=CC=CC=C21)C3=NC(=NC=C3)NC4=C(C=C(C(=C4)NC(=O)C=C)N(C)CCN(C)C)OC

> <PUBCHEM_OPENEYE_CAN_SMILES>
CN1C=C(C2=CC=CC=C21)C3=NC(=NC=C3)NC4=C(C=C(C(=C4)NC(=O)C=C)N(C)CCN(C)C)OC

> <PUBCHEM_OPENEYE_ISO_SMILES>
CN1C=C(C2=CC=CC=C21)C3=NC(=NC=C3)NC4=C(C=C(C(=C4)NC(=O)C=C)N(C)CCN(C)C)OC

> <PUBCHEM_CACTVS_TPSA>
87.6

> <PUBCHEM_MONOISOTOPIC_WEIGHT>
499.26957332

> <PUBCHEM_TOTAL_CHARGE>
0

> <PUBCHEM_HEAVY_ATOM_COUNT>
37

> <PUBCHEM_ATOM_DEF_STEREO_COUNT>
0

> <PUBCHEM_ATOM_UDEF_STEREO_COUNT>
0

> <PUBCHEM_BOND_DEF_STEREO_COUNT>
0

> <PUBCHEM_BOND_UDEF_STEREO_COUNT>
0

> <PUBCHEM_ISOTOPIC_ATOM_COUNT>
0

> <PUBCHEM_COMPONENT_COUNT>
1

> <PUBCHEM_CACTVS_TAUTO_COUNT>
-1

> <PUBCHEM_COORDINATE_TYPE>
1
5
255

> <PUBCHEM_BONDANNOTATIONS>
11  16  8
11  17  8
13  14  8
13  15  8
13  24  8
14  25  8
15  18  8
16  22  8
17  21  8
19  21  8
19  22  8
23  32  8
24  30  8
25  31  8
30  31  8
32  33  8
4  14  8
4  18  8
8  23  8
8  29  8
9  29  8
9  33  8

> <minimizedAffinity>
-9.54832

> <CNNscore>
0.0176094789

> <CNNaffinity>
4.7044162750

> <CNN_VS>
0.0828423202

> <CNNaffinity_variance>
3.4755249023

$$$$
71496458


 39 42  0  0  0  0  0  0  0  0999 V2000
   -4.7764   -0.6473    9.6641 C   0  0  0  0  0  0  0  0  0  0  0  0
   -4.9628   -0.0056    8.9202 C   0  0  0  0  0  0  0  0  0  0  0  0
   -5.1555   -1.5721    9.6333 C   0  0  0  0  0  0  0  0  0  0  0  0
   -5.9074   -1.2134    8.1148 C   0  0  0  0  0  0  0  0  0  0  0  0
   -5.7210   -1.8553    8.8587 C   0  0  0  0  0  0  0  0  0  0  0  0
   -5.5283   -0.2886    8.1455 C   0  0  0  0  0  0  0  0  0  0  0  0
   -4.2215    0.8270    7.2597 O   0  0  0  0  0  0  0  0  0  0  0  0
   -4.5837    0.9193    8.9510 N   0  0  0  0  0  0  0  0  0  0  0  0
   -4.2130    1.3356    8.1207 C   0  0  0  0  0  0  0  0  0  0  0  0
   -4.5784    1.2346    9.4848 H   0  0  0  0  0  0  0  0  0  0  0  0
   -3.8339    2.2604    8.1516 C   0  0  0  0  0  0  0  0  0  0  0  0
   -3.9891    2.8900    7.3903 C   0  0  0  0  0  0  0  0  0  0  0  0
   -6.1001   -2.7801    8.8279 O   0  0  0  0  0  0  0  0  0  0  0  0
   -5.9113   -3.4228    9.5704 C   0  0  0  0  0  0  0  0  0  0  0  0
   -4.2109   -0.3642   10.4388 N   0  0  0  0  0  0  0  0  0  0  0  0
   -4.6013    0.2078   11.1602 C   0  0  0  0  0  0  0  0  0  0  0  0
   -3.2550   -0.6531   10.4921 C   0  0  0  0  0  0  0  0  0  0  0  0
   -2.6368   -0.2176   11.1464 C   0  0  0  0  0  0  0  0  0  0  0  0
   -1.6534   -0.1953   10.9664 N   0  0  0  0  0  0  0  0  0  0  0  0
   -1.1659    0.6779   10.9605 C   0  0  0  0  0  0  0  0  0  0  0  0
   -1.1574   -1.0460   10.7923 C   0  0  0  0  0  0  0  0  0  0  0  0
   -6.4728   -1.4965    7.3401 N   0  0  0  0  0  0  0  0  0  0  0  0
   -6.3144   -1.9944    7.0062 H   0  0  0  0  0  0  0  0  0  0  0  0
   -7.2221   -0.1643    6.5254 N   0  0  0  0  0  0  0  0  0  0  0  0
   -8.1866   -1.2697    7.4463 N   0  0  0  0  0  0  0  0  0  0  0  0
   -8.0432    0.3554    6.2892 C   0  0  0  0  0  0  0  0  0  0  0  0
   -7.2938   -0.9768    7.1039 C   0  0  0  0  0  0  0  0  0  0  0  0
   -8.9360    0.0626    6.6316 C   0  0  0  0  0  0  0  0  0  0  0  0
   -9.0076   -0.7499    7.2101 C   0  0  0  0  0  0  0  0  0  0  0  0
   -7.3645    2.3586    4.8139 N   0  0  0  0  0  0  0  0  0  0  0  0
   -8.7297    1.7261    5.3920 C   0  0  0  0  0  0  0  0  0  0  0  0
   -8.3526    2.4660    4.8348 C   0  0  0  0  0  0  0  0  0  0  0  0
   -7.9714    1.1679    5.7107 C   0  0  0  0  0  0  0  0  0  0  0  0
   -7.1295    1.5579    5.3542 C   0  0  0  0  0  0  0  0  0  0  0  0
   -9.7174    1.6609    5.5343 C   0  0  0  0  0  0  0  0  0  0  0  0
   -8.9633    3.1406    4.4199 C   0  0  0  0  0  0  0  0  0  0  0  0
   -6.7195    2.9526    4.3332 C   0  0  0  0  0  0  0  0  0  0  0  0
  -10.3280    2.3354    5.1194 C   0  0  0  0  0  0  0  0  0  0  0  0
   -9.9509    3.0753    4.5622 C   0  0  0  0  0  0  0  0  0  0  0  0
 13  5  1  0
 13 14  1  0
  7  9  2  0
 15 17  1  0
 15  1  1  0
 15 16  1  0
 30 32  1  0
 30 34  1  0
 30 37  1  0
 19 18  1  0
 19 20  1  0
 19 21  1  0
 22  4  1  0
 22 27  1  0
 22 23  1  0
  8  2  1  0
  8  9  1  0
  8 10  1  0
 24 26  2  0
 24 27  1  0
 25 27  2  0
 25 29  1  0
 17 18  1  0
  1  2  2  0
  1  3  1  0
 31 32  2  0
 31 33  1  0
 31 35  1  0
 32 36  1  0
 33 34  2  0
 33 26  1  0
  2  6  1  0
  3  5  2  0
  4  5  1  0
  4  6  2  0
 26 28  1  0
 35 38  2  0
 36 39  2  0
 38 39  1  0
 28 29  2  0
  9 11  1  0
 11 12  2  0
M  END
> <PUBCHEM_COMPOUND_CID>
71496458

> <PUBCHEM_COMPOUND_CANONICALIZED>
1

> <PUBCHEM_CACTVS_COMPLEXITY>
752

> <PUBCHEM_CACTVS_HBOND_ACCEPTOR>
7

> <PUBCHEM_CACTVS_HBOND_DONOR>
2

> <PUBCHEM_CACTVS_ROTATABLE_BOND>
10

> <PUBCHEM_CACTVS_SUBSKEYS>
AAADcfB7sAAAAAAAAAAAAAAAAAAAAWAAAAA8YIAAAAAAAFgB/AAAHgAQAAAADAzBngY/1vfMFACoAzV3dACCiCkxIqAJ2CA/fNiObuLE+duVNChu1BvY6Kew0MMOgECAAgQCECAAgQAECAQgQAAAAAAAAA==

> <PUBCHEM_IUPAC_OPENEYE_NAME>
N-[2-[2-(dimethylamino)ethyl-methyl-amino]-4-methoxy-5-[[4-(1-methylindol-3-yl)pyrimidin-2-yl]amino]phenyl]prop-2-enamide

> <PUBCHEM_IUPAC_CAS_NAME>
N-[2-[2-(dimethylamino)ethyl-methylamino]-4-methoxy-5-[[4-(1-methyl-3-indolyl)-2-pyrimidinyl]amino]phenyl]-2-propenamide

> <PUBCHEM_IUPAC_NAME_MARKUP>
<I>N</I>-[2-[2-(dimethylamino)ethyl-methylamino]-4-methoxy-5-[[4-(1-methylindol-3-yl)pyrimidin-2-yl]amino]phenyl]prop-2-enamide

> <PUBCHEM_IUPAC_NAME>
N-[2-[2-(dimethylamino)ethyl-methylamino]-4-methoxy-5-[[4-(1-methylindol-3-yl)pyrimidin-2-yl]amino]phenyl]prop-2-enamide

> <PUBCHEM_IUPAC_SYSTEMATIC_NAME>
N-[2-[2-(dimethylamino)ethyl-methyl-amino]-4-methoxy-5-[[4-(1-methylindol-3-yl)pyrimidin-2-yl]amino]phenyl]prop-2-enamide

> <PUBCHEM_IUPAC_TRADITIONAL_NAME>
N-[2-[2-(dimethylamino)ethyl-methyl-amino]-4-methoxy-5-[[4-(1-methylindol-3-yl)pyrimidin-2-yl]amino]phenyl]acrylamide

> <PUBCHEM_IUPAC_INCHI>
InChI=1S/C28H33N7O2/c1-7-27(36)30-22-16-23(26(37-6)17-25(22)34(4)15-14-33(2)3)32-28-29-13-12-21(31-28)20-18-35(5)24-11-9-8-10-19(20)24/h7-13,16-18H,1,14-15H2,2-6H3,(H,30,36)(H,29,31,32)

> <PUBCHEM_IUPAC_INCHIKEY>
DUYJMQONPNNFPI-UHFFFAOYSA-N

> <PUBCHEM_XLOGP3_AA>
3.7

> <PUBCHEM_EXACT_MASS>
499.26957332

> <PUBCHEM_MOLECULAR_FORMULA>
C28H33N7O2

> <PUBCHEM_MOLECULAR_WEIGHT>
499.6

> <PUBCHEM_REFERENCE_STANDARDIZATION>
Bypass - this structure was created from CID 78357807

> <PUBCHEM_SMILES>
CN1C=C(C2=CC=CC=C21)C3=NC(=NC=C3)NC4=C(C=C(C(=C4)NC(=O)C=C)N(C)CCN(C)C)OC

> <PUBCHEM_OPENEYE_CAN_SMILES>
CN1C=C(C2=CC=CC=C21)C3=NC(=NC=C3)NC4=C(C=C(C(=C4)NC(=O)C=C)N(C)CCN(C)C)OC

> <PUBCHEM_OPENEYE_ISO_SMILES>
CN1C=C(C2=CC=CC=C21)C3=NC(=NC=C3)NC4=C(C=C(C(=C4)NC(=O)C=C)N(C)CCN(C)C)OC

> <PUBCHEM_CACTVS_TPSA>
87.6

> <PUBCHEM_MONOISOTOPIC_WEIGHT>
499.26957332

> <PUBCHEM_TOTAL_CHARGE>
0

> <PUBCHEM_HEAVY_ATOM_COUNT>
37

> <PUBCHEM_ATOM_DEF_STEREO_COUNT>
0

> <PUBCHEM_ATOM_UDEF_STEREO_COUNT>
0

> <PUBCHEM_BOND_DEF_STEREO_COUNT>
0

> <PUBCHEM_BOND_UDEF_STEREO_COUNT>
0

> <PUBCHEM_ISOTOPIC_ATOM_COUNT>
0

> <PUBCHEM_COMPONENT_COUNT>
1

> <PUBCHEM_CACTVS_TAUTO_COUNT>
-1

> <PUBCHEM_COORDINATE_TYPE>
1
5
255

> <PUBCHEM_BONDANNOTATIONS>
11  16  8
11  17  8
13  14  8
13  15  8
13  24  8
14  25  8
15  18  8
16  22  8
17  21  8
19  21  8
19  22  8
23  32  8
24  30  8
25  31  8
30  31  8
32  33  8
4  14  8
4  18  8
8  23  8
8  29  8
9  29  8
9  33  8

> <minimizedAffinity>
-9.13560

> <CNNscore>
0.0155620724

> <CNNaffinity>
4.9833292961

> <CNN_VS>
0.0775509328

> <CNNaffinity_variance>
2.7087428570

$$$$
71496458


 39 42  0  0  0  0  0  0  0  0999 V2000
   -3.2163    0.7705    9.2614 C   0  0  0  0  0  0  0  0  0  0  0  0
   -4.2063    0.6682    9.1644 C   0  0  0  0  0  0  0  0  0  0  0  0
   -2.7403    1.5074    8.7813 C   0  0  0  0  0  0  0  0  0  0  0  0
   -4.2444    2.0397    8.1073 C   0  0  0  0  0  0  0  0  0  0  0  0
   -3.2544    2.1420    8.2042 C   0  0  0  0  0  0  0  0  0  0  0  0
   -4.7204    1.3028    8.5873 C   0  0  0  0  0  0  0  0  0  0  0  0
   -5.6226   -0.3861    8.2249 O   0  0  0  0  0  0  0  0  0  0  0  0
   -4.6821   -0.0687    9.6445 N   0  0  0  0  0  0  0  0  0  0  0  0
   -5.3903   -0.5959    9.1747 C   0  0  0  0  0  0  0  0  0  0  0  0
   -4.5382   -0.1989   10.2333 H   0  0  0  0  0  0  0  0  0  0  0  0
   -5.8662   -1.3329    9.6548 C   0  0  0  0  0  0  0  0  0  0  0  0
   -6.0197   -1.2697   10.6409 C   0  0  0  0  0  0  0  0  0  0  0  0
   -2.7785    2.8789    7.7242 O   0  0  0  0  0  0  0  0  0  0  0  0
   -1.7805    2.9339    7.7565 C   0  0  0  0  0  0  0  0  0  0  0  0
   -2.7021    0.1358    9.8385 N   0  0  0  0  0  0  0  0  0  0  0  0
   -2.2630   -0.6656    9.4324 C   0  0  0  0  0  0  0  0  0  0  0  0
   -2.6272    0.3027   10.8216 C   0  0  0  0  0  0  0  0  0  0  0  0
   -1.8958   -0.1309   11.3480 C   0  0  0  0  0  0  0  0  0  0  0  0
   -1.8409    0.0089   12.3367 N   0  0  0  0  0  0  0  0  0  0  0  0
   -1.6369    0.9170   12.7026 C   0  0  0  0  0  0  0  0  0  0  0  0
   -1.9899   -0.7592   12.9594 C   0  0  0  0  0  0  0  0  0  0  0  0
   -4.7585    2.6743    7.5302 N   0  0  0  0  0  0  0  0  0  0  0  0
   -4.8177    3.2680    7.6988 H   0  0  0  0  0  0  0  0  0  0  0  0
   -6.1655    2.4276    6.5506 N   0  0  0  0  0  0  0  0  0  0  0  0
   -4.6069    1.9524    5.9632 N   0  0  0  0  0  0  0  0  0  0  0  0
   -6.5839    2.1047    5.7017 C   0  0  0  0  0  0  0  0  0  0  0  0
   -5.1770    2.3514    6.6813 C   0  0  0  0  0  0  0  0  0  0  0  0
   -6.0139    1.7057    4.9835 C   0  0  0  0  0  0  0  0  0  0  0  0
   -5.0254    1.6295    5.1143 C   0  0  0  0  0  0  0  0  0  0  0  0
   -9.0123    2.6615    5.0361 N   0  0  0  0  0  0  0  0  0  0  0  0
   -8.2656    1.6395    6.0340 C   0  0  0  0  0  0  0  0  0  0  0  0
   -9.1603    1.9381    5.7016 C   0  0  0  0  0  0  0  0  0  0  0  0
   -7.5724    2.1809    5.5710 C   0  0  0  0  0  0  0  0  0  0  0  0
   -8.0328    2.8112    4.9555 C   0  0  0  0  0  0  0  0  0  0  0  0
   -8.2034    0.9114    6.7167 C   0  0  0  0  0  0  0  0  0  0  0  0
   -9.9927    1.5085    6.0520 C   0  0  0  0  0  0  0  0  0  0  0  0
   -9.7246    3.1529    4.5349 C   0  0  0  0  0  0  0  0  0  0  0  0
   -9.0357    0.4819    7.0670 C   0  0  0  0  0  0  0  0  0  0  0  0
   -9.9304    0.7805    6.7346 C   0  0  0  0  0  0  0  0  0  0  0  0
 13  5  1  0
 13 14  1  0
  7  9  2  0
 15 17  1  0
 15  1  1  0
 15 16  1  0
 30 32  1  0
 30 34  1  0
 30 37  1  0
 19 18  1  0
 19 20  1  0
 19 21  1  0
 22  4  1  0
 22 27  1  0
 22 23  1  0
  8  2  1  0
  8  9  1  0
  8 10  1  0
 24 26  2  0
 24 27  1  0
 25 27  2  0
 25 29  1  0
 17 18  1  0
  1  2  2  0
  1  3  1  0
 31 32  2  0
 31 33  1  0
 31 35  1  0
 32 36  1  0
 33 34  2  0
 33 26  1  0
  2  6  1  0
  3  5  2  0
  4  5  1  0
  4  6  2  0
 26 28  1  0
 35 38  2  0
 36 39  2  0
 38 39  1  0
 28 29  2  0
  9 11  1  0
 11 12  2  0
M  END
> <PUBCHEM_COMPOUND_CID>
71496458

> <PUBCHEM_COMPOUND_CANONICALIZED>
1

> <PUBCHEM_CACTVS_COMPLEXITY>
752

> <PUBCHEM_CACTVS_HBOND_ACCEPTOR>
7

> <PUBCHEM_CACTVS_HBOND_DONOR>
2

> <PUBCHEM_CACTVS_ROTATABLE_BOND>
10

> <PUBCHEM_CACTVS_SUBSKEYS>
AAADcfB7sAAAAAAAAAAAAAAAAAAAAWAAAAA8YIAAAAAAAFgB/AAAHgAQAAAADAzBngY/1vfMFACoAzV3dACCiCkxIqAJ2CA/fNiObuLE+duVNChu1BvY6Kew0MMOgECAAgQCECAAgQAECAQgQAAAAAAAAA==

> <PUBCHEM_IUPAC_OPENEYE_NAME>
N-[2-[2-(dimethylamino)ethyl-methyl-amino]-4-methoxy-5-[[4-(1-methylindol-3-yl)pyrimidin-2-yl]amino]phenyl]prop-2-enamide

> <PUBCHEM_IUPAC_CAS_NAME>
N-[2-[2-(dimethylamino)ethyl-methylamino]-4-methoxy-5-[[4-(1-methyl-3-indolyl)-2-pyrimidinyl]amino]phenyl]-2-propenamide

> <PUBCHEM_IUPAC_NAME_MARKUP>
<I>N</I>-[2-[2-(dimethylamino)ethyl-methylamino]-4-methoxy-5-[[4-(1-methylindol-3-yl)pyrimidin-2-yl]amino]phenyl]prop-2-enamide

> <PUBCHEM_IUPAC_NAME>
N-[2-[2-(dimethylamino)ethyl-methylamino]-4-methoxy-5-[[4-(1-methylindol-3-yl)pyrimidin-2-yl]amino]phenyl]prop-2-enamide

> <PUBCHEM_IUPAC_SYSTEMATIC_NAME>
N-[2-[2-(dimethylamino)ethyl-methyl-amino]-4-methoxy-5-[[4-(1-methylindol-3-yl)pyrimidin-2-yl]amino]phenyl]prop-2-enamide

> <PUBCHEM_IUPAC_TRADITIONAL_NAME>
N-[2-[2-(dimethylamino)ethyl-methyl-amino]-4-methoxy-5-[[4-(1-methylindol-3-yl)pyrimidin-2-yl]amino]phenyl]acrylamide

> <PUBCHEM_IUPAC_INCHI>
InChI=1S/C28H33N7O2/c1-7-27(36)30-22-16-23(26(37-6)17-25(22)34(4)15-14-33(2)3)32-28-29-13-12-21(31-28)20-18-35(5)24-11-9-8-10-19(20)24/h7-13,16-18H,1,14-15H2,2-6H3,(H,30,36)(H,29,31,32)

> <PUBCHEM_IUPAC_INCHIKEY>
DUYJMQONPNNFPI-UHFFFAOYSA-N

> <PUBCHEM_XLOGP3_AA>
3.7

> <PUBCHEM_EXACT_MASS>
499.26957332

> <PUBCHEM_MOLECULAR_FORMULA>
C28H33N7O2

> <PUBCHEM_MOLECULAR_WEIGHT>
499.6

> <PUBCHEM_REFERENCE_STANDARDIZATION>
Bypass - this structure was created from CID 78357807

> <PUBCHEM_SMILES>
CN1C=C(C2=CC=CC=C21)C3=NC(=NC=C3)NC4=C(C=C(C(=C4)NC(=O)C=C)N(C)CCN(C)C)OC

> <PUBCHEM_OPENEYE_CAN_SMILES>
CN1C=C(C2=CC=CC=C21)C3=NC(=NC=C3)NC4=C(C=C(C(=C4)NC(=O)C=C)N(C)CCN(C)C)OC

> <PUBCHEM_OPENEYE_ISO_SMILES>
CN1C=C(C2=CC=CC=C21)C3=NC(=NC=C3)NC4=C(C=C(C(=C4)NC(=O)C=C)N(C)CCN(C)C)OC

> <PUBCHEM_CACTVS_TPSA>
87.6

> <PUBCHEM_MONOISOTOPIC_WEIGHT>
499.26957332

> <PUBCHEM_TOTAL_CHARGE>
0

> <PUBCHEM_HEAVY_ATOM_COUNT>
37

> <PUBCHEM_ATOM_DEF_STEREO_COUNT>
0

> <PUBCHEM_ATOM_UDEF_STEREO_COUNT>
0

> <PUBCHEM_BOND_DEF_STEREO_COUNT>
0

> <PUBCHEM_BOND_UDEF_STEREO_COUNT>
0

> <PUBCHEM_ISOTOPIC_ATOM_COUNT>
0

> <PUBCHEM_COMPONENT_COUNT>
1

> <PUBCHEM_CACTVS_TAUTO_COUNT>
-1

> <PUBCHEM_COORDINATE_TYPE>
1
5
255

> <PUBCHEM_BONDANNOTATIONS>
11  16  8
11  17  8
13  14  8
13  15  8
13  24  8
14  25  8
15  18  8
16  22  8
17  21  8
19  21  8
19  22  8
23  32  8
24  30  8
25  31  8
30  31  8
32  33  8
4  14  8
4  18  8
8  23  8
8  29  8
9  29  8
9  33  8

> <minimizedAffinity>
-9.34827

> <CNNscore>
0.0125988778

> <CNNaffinity>
4.4413084984

> <CNN_VS>
0.0559555031

> <CNNaffinity_variance>
3.3438007832

$$$$
71496458


 39 42  0  0  0  0  0  0  0  0999 V2000
   -3.5682   -1.4711    9.2277 C   0  0  0  0  0  0  0  0  0  0  0  0
   -4.4217   -1.9465    9.0147 C   0  0  0  0  0  0  0  0  0  0  0  0
   -3.2436   -0.7357    8.6329 C   0  0  0  0  0  0  0  0  0  0  0  0
   -4.6262   -0.9512    7.6121 C   0  0  0  0  0  0  0  0  0  0  0  0
   -3.7726   -0.4757    7.8251 C   0  0  0  0  0  0  0  0  0  0  0  0
   -4.9508   -1.6866    8.2069 C   0  0  0  0  0  0  0  0  0  0  0  0
   -6.0992   -1.7067   10.0770 O   0  0  0  0  0  0  0  0  0  0  0  0
   -4.7462   -2.6820    9.6095 N   0  0  0  0  0  0  0  0  0  0  0  0
   -5.5850   -2.5620   10.1408 C   0  0  0  0  0  0  0  0  0  0  0  0
   -4.4274   -3.2123    9.6491 H   0  0  0  0  0  0  0  0  0  0  0  0
   -5.9095   -3.2975   10.7356 C   0  0  0  0  0  0  0  0  0  0  0  0
   -6.1765   -4.1773   10.3426 C   0  0  0  0  0  0  0  0  0  0  0  0
   -3.4481    0.2598    7.2303 O   0  0  0  0  0  0  0  0  0  0  0  0
   -2.5543    0.6774    7.3938 C   0  0  0  0  0  0  0  0  0  0  0  0
   -3.0391   -1.7312   10.0355 N   0  0  0  0  0  0  0  0  0  0  0  0
   -2.5453   -2.6006   10.0513 C   0  0  0  0  0  0  0  0  0  0  0  0
   -3.0038   -1.1216   10.8276 C   0  0  0  0  0  0  0  0  0  0  0  0
   -2.1837   -1.0912   11.3989 C   0  0  0  0  0  0  0  0  0  0  0  0
   -2.1446   -0.4743   12.1850 N   0  0  0  0  0  0  0  0  0  0  0  0
   -2.1877    0.5151   12.0466 C   0  0  0  0  0  0  0  0  0  0  0  0
   -2.0624   -0.8468   13.1093 C   0  0  0  0  0  0  0  0  0  0  0  0
   -5.1552   -0.6911    6.8043 N   0  0  0  0  0  0  0  0  0  0  0  0
   -4.8635   -0.5280    6.2821 H   0  0  0  0  0  0  0  0  0  0  0  0
   -6.6729    0.0302    6.3842 N   0  0  0  0  0  0  0  0  0  0  0  0
   -6.6358   -1.4217    7.3279 N   0  0  0  0  0  0  0  0  0  0  0  0
   -7.6723    0.0271    6.4186 C   0  0  0  0  0  0  0  0  0  0  0  0
   -6.1546   -0.6942    6.8388 C   0  0  0  0  0  0  0  0  0  0  0  0
   -8.1534   -0.7003    6.9077 C   0  0  0  0  0  0  0  0  0  0  0  0
   -7.6352   -1.4248    7.3623 C   0  0  0  0  0  0  0  0  0  0  0  0
   -8.5954    1.9469    4.9652 N   0  0  0  0  0  0  0  0  0  0  0  0
   -9.1170    1.0343    6.1870 C   0  0  0  0  0  0  0  0  0  0  0  0
   -9.3686    1.7769    5.5664 C   0  0  0  0  0  0  0  0  0  0  0  0
   -8.1904    0.7516    5.9640 C   0  0  0  0  0  0  0  0  0  0  0  0
   -7.8687    1.3144    5.2105 C   0  0  0  0  0  0  0  0  0  0  0  0
   -9.7691    0.7146    6.8745 C   0  0  0  0  0  0  0  0  0  0  0  0
  -10.2723    2.1999    5.6333 C   0  0  0  0  0  0  0  0  0  0  0  0
   -8.5556    2.6343    4.2400 C   0  0  0  0  0  0  0  0  0  0  0  0
  -10.6727    1.1375    6.9414 C   0  0  0  0  0  0  0  0  0  0  0  0
  -10.9244    1.8802    6.3208 C   0  0  0  0  0  0  0  0  0  0  0  0
 13  5  1  0
 13 14  1  0
  7  9  2  0
 15 17  1  0
 15  1  1  0
 15 16  1  0
 30 32  1  0
 30 34  1  0
 30 37  1  0
 19 18  1  0
 19 20  1  0
 19 21  1  0
 22  4  1  0
 22 27  1  0
 22 23  1  0
  8  2  1  0
  8  9  1  0
  8 10  1  0
 24 26  2  0
 24 27  1  0
 25 27  2  0
 25 29  1  0
 17 18  1  0
  1  2  2  0
  1  3  1  0
 31 32  2  0
 31 33  1  0
 31 35  1  0
 32 36  1  0
 33 34  2  0
 33 26  1  0
  2  6  1  0
  3  5  2  0
  4  5  1  0
  4  6  2  0
 26 28  1  0
 35 38  2  0
 36 39  2  0
 38 39  1  0
 28 29  2  0
  9 11  1  0
 11 12  2  0
M  END
> <PUBCHEM_COMPOUND_CID>
71496458

> <PUBCHEM_COMPOUND_CANONICALIZED>
1

> <PUBCHEM_CACTVS_COMPLEXITY>
752

> <PUBCHEM_CACTVS_HBOND_ACCEPTOR>
7

> <PUBCHEM_CACTVS_HBOND_DONOR>
2

> <PUBCHEM_CACTVS_ROTATABLE_BOND>
10

> <PUBCHEM_CACTVS_SUBSKEYS>
AAADcfB7sAAAAAAAAAAAAAAAAAAAAWAAAAA8YIAAAAAAAFgB/AAAHgAQAAAADAzBngY/1vfMFACoAzV3dACCiCkxIqAJ2CA/fNiObuLE+duVNChu1BvY6Kew0MMOgECAAgQCECAAgQAECAQgQAAAAAAAAA==

> <PUBCHEM_IUPAC_OPENEYE_NAME>
N-[2-[2-(dimethylamino)ethyl-methyl-amino]-4-methoxy-5-[[4-(1-methylindol-3-yl)pyrimidin-2-yl]amino]phenyl]prop-2-enamide

> <PUBCHEM_IUPAC_CAS_NAME>
N-[2-[2-(dimethylamino)ethyl-methylamino]-4-methoxy-5-[[4-(1-methyl-3-indolyl)-2-pyrimidinyl]amino]phenyl]-2-propenamide

> <PUBCHEM_IUPAC_NAME_MARKUP>
<I>N</I>-[2-[2-(dimethylamino)ethyl-methylamino]-4-methoxy-5-[[4-(1-methylindol-3-yl)pyrimidin-2-yl]amino]phenyl]prop-2-enamide

> <PUBCHEM_IUPAC_NAME>
N-[2-[2-(dimethylamino)ethyl-methylamino]-4-methoxy-5-[[4-(1-methylindol-3-yl)pyrimidin-2-yl]amino]phenyl]prop-2-enamide

> <PUBCHEM_IUPAC_SYSTEMATIC_NAME>
N-[2-[2-(dimethylamino)ethyl-methyl-amino]-4-methoxy-5-[[4-(1-methylindol-3-yl)pyrimidin-2-yl]amino]phenyl]prop-2-enamide

> <PUBCHEM_IUPAC_TRADITIONAL_NAME>
N-[2-[2-(dimethylamino)ethyl-methyl-amino]-4-methoxy-5-[[4-(1-methylindol-3-yl)pyrimidin-2-yl]amino]phenyl]acrylamide

> <PUBCHEM_IUPAC_INCHI>
InChI=1S/C28H33N7O2/c1-7-27(36)30-22-16-23(26(37-6)17-25(22)34(4)15-14-33(2)3)32-28-29-13-12-21(31-28)20-18-35(5)24-11-9-8-10-19(20)24/h7-13,16-18H,1,14-15H2,2-6H3,(H,30,36)(H,29,31,32)

> <PUBCHEM_IUPAC_INCHIKEY>
DUYJMQONPNNFPI-UHFFFAOYSA-N

> <PUBCHEM_XLOGP3_AA>
3.7

> <PUBCHEM_EXACT_MASS>
499.26957332

> <PUBCHEM_MOLECULAR_FORMULA>
C28H33N7O2

> <PUBCHEM_MOLECULAR_WEIGHT>
499.6

> <PUBCHEM_REFERENCE_STANDARDIZATION>
Bypass - this structure was created from CID 78357807

> <PUBCHEM_SMILES>
CN1C=C(C2=CC=CC=C21)C3=NC(=NC=C3)NC4=C(C=C(C(=C4)NC(=O)C=C)N(C)CCN(C)C)OC

> <PUBCHEM_OPENEYE_CAN_SMILES>
CN1C=C(C2=CC=CC=C21)C3=NC(=NC=C3)NC4=C(C=C(C(=C4)NC(=O)C=C)N(C)CCN(C)C)OC

> <PUBCHEM_OPENEYE_ISO_SMILES>
CN1C=C(C2=CC=CC=C21)C3=NC(=NC=C3)NC4=C(C=C(C(=C4)NC(=O)C=C)N(C)CCN(C)C)OC

> <PUBCHEM_CACTVS_TPSA>
87.6

> <PUBCHEM_MONOISOTOPIC_WEIGHT>
499.26957332

> <PUBCHEM_TOTAL_CHARGE>
0

> <PUBCHEM_HEAVY_ATOM_COUNT>
37

> <PUBCHEM_ATOM_DEF_STEREO_COUNT>
0

> <PUBCHEM_ATOM_UDEF_STEREO_COUNT>
0

> <PUBCHEM_BOND_DEF_STEREO_COUNT>
0

> <PUBCHEM_BOND_UDEF_STEREO_COUNT>
0

> <PUBCHEM_ISOTOPIC_ATOM_COUNT>
0

> <PUBCHEM_COMPONENT_COUNT>
1

> <PUBCHEM_CACTVS_TAUTO_COUNT>
-1

> <PUBCHEM_COORDINATE_TYPE>
1
5
255

> <PUBCHEM_BONDANNOTATIONS>
11  16  8
11  17  8
13  14  8
13  15  8
13  24  8
14  25  8
15  18  8
16  22  8
17  21  8
19  21  8
19  22  8
23  32  8
24  30  8
25  31  8
30  31  8
32  33  8
4  14  8
4  18  8
8  23  8
8  29  8
9  29  8
9  33  8

> <minimizedAffinity>
-8.96029

> <CNNscore>
0.0109571647

> <CNNaffinity>
4.9137816429

> <CNN_VS>
0.0538411140

> <CNNaffinity_variance>
2.4815835953

$$$$
71496458


 39 42  0  0  0  0  0  0  0  0999 V2000
  -27.3226    1.4122    5.5440 C   0  0  0  0  0  0  0  0  0  0  0  0
  -26.3421    1.5790    5.6478 C   0  0  0  0  0  0  0  0  0  0  0  0
  -27.6971    1.1741    4.6479 C   0  0  0  0  0  0  0  0  0  0  0  0
  -26.1107    1.2696    3.9594 C   0  0  0  0  0  0  0  0  0  0  0  0
  -27.0912    1.1028    3.8556 C   0  0  0  0  0  0  0  0  0  0  0  0
  -25.7361    1.5078    4.8555 C   0  0  0  0  0  0  0  0  0  0  0  0
  -25.1453    3.1698    5.8407 O   0  0  0  0  0  0  0  0  0  0  0  0
  -25.9676    1.8172    6.5439 N   0  0  0  0  0  0  0  0  0  0  0  0
  -25.3692    2.6126    6.6404 C   0  0  0  0  0  0  0  0  0  0  0  0
  -26.1064    1.4717    7.0397 H   0  0  0  0  0  0  0  0  0  0  0  0
  -24.9947    2.8508    7.5365 C   0  0  0  0  0  0  0  0  0  0  0  0
  -24.8970    2.1473    8.2404 C   0  0  0  0  0  0  0  0  0  0  0  0
  -27.4658    0.8646    2.9595 O   0  0  0  0  0  0  0  0  0  0  0  0
  -28.2698    0.2736    2.8947 C   0  0  0  0  0  0  0  0  0  0  0  0
  -27.9286    1.4835    6.3364 N   0  0  0  0  0  0  0  0  0  0  0  0
  -28.4208    2.3355    6.5144 C   0  0  0  0  0  0  0  0  0  0  0  0
  -28.0423    0.7026    6.9507 C   0  0  0  0  0  0  0  0  0  0  0  0
  -28.8272    0.6631    7.5690 C   0  0  0  0  0  0  0  0  0  0  0  0
  -29.0181   -0.1740    8.0818 N   0  0  0  0  0  0  0  0  0  0  0  0
  -28.6189   -1.0424    7.7877 C   0  0  0  0  0  0  0  0  0  0  0  0
  -29.6081   -0.1426    8.8885 C   0  0  0  0  0  0  0  0  0  0  0  0
  -25.5048    1.1984    3.1671 N   0  0  0  0  0  0  0  0  0  0  0  0
  -25.7281    1.0029    2.6227 H   0  0  0  0  0  0  0  0  0  0  0  0
  -23.8954    0.7991    3.6679 N   0  0  0  0  0  0  0  0  0  0  0  0
  -24.2162    2.3296    2.9230 N   0  0  0  0  0  0  0  0  0  0  0  0
  -22.9294    1.0432    3.7535 C   0  0  0  0  0  0  0  0  0  0  0  0
  -24.5388    1.4423    3.2527 C   0  0  0  0  0  0  0  0  0  0  0  0
  -22.6068    1.9304    3.4238 C   0  0  0  0  0  0  0  0  0  0  0  0
  -23.2502    2.5736    3.0086 C   0  0  0  0  0  0  0  0  0  0  0  0
  -21.2499   -0.8160    4.3641 N   0  0  0  0  0  0  0  0  0  0  0  0
  -21.9947    0.3978    5.1190 C   0  0  0  0  0  0  0  0  0  0  0  0
  -21.3508   -0.3577    5.2404 C   0  0  0  0  0  0  0  0  0  0  0  0
  -22.2862    0.4000    4.1687 C   0  0  0  0  0  0  0  0  0  0  0  0
  -21.8269   -0.3486    3.7030 C   0  0  0  0  0  0  0  0  0  0  0  0
  -22.2294    0.9842    5.8944 C   0  0  0  0  0  0  0  0  0  0  0  0
  -20.9417   -0.5267    6.1372 C   0  0  0  0  0  0  0  0  0  0  0  0
  -20.6692   -1.6089    4.1796 C   0  0  0  0  0  0  0  0  0  0  0  0
  -21.8202    0.8152    6.7910 C   0  0  0  0  0  0  0  0  0  0  0  0
  -21.1764    0.0597    6.9124 C   0  0  0  0  0  0  0  0  0  0  0  0
 13  5  1  0
 13 14  1  0
  7  9  2  0
 15 17  1  0
 15  1  1  0
 15 16  1  0
 30 32  1  0
 30 34  1  0
 30 37  1  0
 19 18  1  0
 19 20  1  0
 19 21  1  0
 22  4  1  0
 22 27  1  0
 22 23  1  0
  8  2  1  0
  8  9  1  0
  8 10  1  0
 24 26  2  0
 24 27  1  0
 25 27  2  0
 25 29  1  0
 17 18  1  0
  1  2  2  0
  1  3  1  0
 31 32  2  0
 31 33  1  0
 31 35  1  0
 32 36  1  0
 33 34  2  0
 33 26  1  0
  2  6  1  0
  3  5  2  0
  4  5  1  0
  4  6  2  0
 26 28  1  0
 35 38  2  0
 36 39  2  0
 38 39  1  0
 28 29  2  0
  9 11  1  0
 11 12  2  0
M  END
> <PUBCHEM_COMPOUND_CID>
71496458

> <PUBCHEM_COMPOUND_CANONICALIZED>
1

> <PUBCHEM_CACTVS_COMPLEXITY>
752

> <PUBCHEM_CACTVS_HBOND_ACCEPTOR>
7

> <PUBCHEM_CACTVS_HBOND_DONOR>
2

> <PUBCHEM_CACTVS_ROTATABLE_BOND>
10

> <PUBCHEM_CACTVS_SUBSKEYS>
AAADcfB7sAAAAAAAAAAAAAAAAAAAAWAAAAA8YIAAAAAAAFgB/AAAHgAQAAAADAzBngY/1vfMFACoAzV3dACCiCkxIqAJ2CA/fNiObuLE+duVNChu1BvY6Kew0MMOgECAAgQCECAAgQAECAQgQAAAAAAAAA==

> <PUBCHEM_IUPAC_OPENEYE_NAME>
N-[2-[2-(dimethylamino)ethyl-methyl-amino]-4-methoxy-5-[[4-(1-methylindol-3-yl)pyrimidin-2-yl]amino]phenyl]prop-2-enamide

> <PUBCHEM_IUPAC_CAS_NAME>
N-[2-[2-(dimethylamino)ethyl-methylamino]-4-methoxy-5-[[4-(1-methyl-3-indolyl)-2-pyrimidinyl]amino]phenyl]-2-propenamide

> <PUBCHEM_IUPAC_NAME_MARKUP>
<I>N</I>-[2-[2-(dimethylamino)ethyl-methylamino]-4-methoxy-5-[[4-(1-methylindol-3-yl)pyrimidin-2-yl]amino]phenyl]prop-2-enamide

> <PUBCHEM_IUPAC_NAME>
N-[2-[2-(dimethylamino)ethyl-methylamino]-4-methoxy-5-[[4-(1-methylindol-3-yl)pyrimidin-2-yl]amino]phenyl]prop-2-enamide

> <PUBCHEM_IUPAC_SYSTEMATIC_NAME>
N-[2-[2-(dimethylamino)ethyl-methyl-amino]-4-methoxy-5-[[4-(1-methylindol-3-yl)pyrimidin-2-yl]amino]phenyl]prop-2-enamide

> <PUBCHEM_IUPAC_TRADITIONAL_NAME>
N-[2-[2-(dimethylamino)ethyl-methyl-amino]-4-methoxy-5-[[4-(1-methylindol-3-yl)pyrimidin-2-yl]amino]phenyl]acrylamide

> <PUBCHEM_IUPAC_INCHI>
InChI=1S/C28H33N7O2/c1-7-27(36)30-22-16-23(26(37-6)17-25(22)34(4)15-14-33(2)3)32-28-29-13-12-21(31-28)20-18-35(5)24-11-9-8-10-19(20)24/h7-13,16-18H,1,14-15H2,2-6H3,(H,30,36)(H,29,31,32)

> <PUBCHEM_IUPAC_INCHIKEY>
DUYJMQONPNNFPI-UHFFFAOYSA-N

> <PUBCHEM_XLOGP3_AA>
3.7

> <PUBCHEM_EXACT_MASS>
499.26957332

> <PUBCHEM_MOLECULAR_FORMULA>
C28H33N7O2

> <PUBCHEM_MOLECULAR_WEIGHT>
499.6

> <PUBCHEM_REFERENCE_STANDARDIZATION>
Bypass - this structure was created from CID 78357807

> <PUBCHEM_SMILES>
CN1C=C(C2=CC=CC=C21)C3=NC(=NC=C3)NC4=C(C=C(C(=C4)NC(=O)C=C)N(C)CCN(C)C)OC

> <PUBCHEM_OPENEYE_CAN_SMILES>
CN1C=C(C2=CC=CC=C21)C3=NC(=NC=C3)NC4=C(C=C(C(=C4)NC(=O)C=C)N(C)CCN(C)C)OC

> <PUBCHEM_OPENEYE_ISO_SMILES>
CN1C=C(C2=CC=CC=C21)C3=NC(=NC=C3)NC4=C(C=C(C(=C4)NC(=O)C=C)N(C)CCN(C)C)OC

> <PUBCHEM_CACTVS_TPSA>
87.6

> <PUBCHEM_MONOISOTOPIC_WEIGHT>
499.26957332

> <PUBCHEM_TOTAL_CHARGE>
0

> <PUBCHEM_HEAVY_ATOM_COUNT>
37

> <PUBCHEM_ATOM_DEF_STEREO_COUNT>
0

> <PUBCHEM_ATOM_UDEF_STEREO_COUNT>
0

> <PUBCHEM_BOND_DEF_STEREO_COUNT>
0

> <PUBCHEM_BOND_UDEF_STEREO_COUNT>
0

> <PUBCHEM_ISOTOPIC_ATOM_COUNT>
0

> <PUBCHEM_COMPONENT_COUNT>
1

> <PUBCHEM_CACTVS_TAUTO_COUNT>
-1

> <PUBCHEM_COORDINATE_TYPE>
1
5
255

> <PUBCHEM_BONDANNOTATIONS>
11  16  8
11  17  8
13  14  8
13  15  8
13  24  8
14  25  8
15  18  8
16  22  8
17  21  8
19  21  8
19  22  8
23  32  8
24  30  8
25  31  8
30  31  8
32  33  8
4  14  8
4  18  8
8  23  8
8  29  8
9  29  8
9  33  8

> <minimizedAffinity>
-6.75718

> <CNNscore>
0.0108932024

> <CNNaffinity>
3.9508697987

> <CNN_VS>
0.0430376232

> <CNNaffinity_variance>
2.3045380116

$$$$
71496458


 39 42  0  0  0  0  0  0  0  0999 V2000
  -27.6393    0.7413    5.3541 C   0  0  0  0  0  0  0  0  0  0  0  0
  -27.0823    1.0131    6.1388 C   0  0  0  0  0  0  0  0  0  0  0  0
  -27.3475    0.9790    4.4276 C   0  0  0  0  0  0  0  0  0  0  0  0
  -25.9420    1.7605    5.0708 C   0  0  0  0  0  0  0  0  0  0  0  0
  -26.4989    1.4887    4.2859 C   0  0  0  0  0  0  0  0  0  0  0  0
  -26.2337    1.5227    5.9972 C   0  0  0  0  0  0  0  0  0  0  0  0
  -26.9344    2.3595    7.6103 O   0  0  0  0  0  0  0  0  0  0  0  0
  -27.3741    0.7753    7.0653 N   0  0  0  0  0  0  0  0  0  0  0  0
  -27.3001    1.4486    7.8011 C   0  0  0  0  0  0  0  0  0  0  0  0
  -27.6009    0.2105    7.1836 H   0  0  0  0  0  0  0  0  0  0  0  0
  -27.5919    1.2107    8.7275 C   0  0  0  0  0  0  0  0  0  0  0  0
  -27.2255    0.3938    9.1728 C   0  0  0  0  0  0  0  0  0  0  0  0
  -26.2072    1.7264    3.3594 O   0  0  0  0  0  0  0  0  0  0  0  0
  -26.6817    1.3365    2.5703 C   0  0  0  0  0  0  0  0  0  0  0  0
  -28.4880    0.2316    5.4957 N   0  0  0  0  0  0  0  0  0  0  0  0
  -28.4585   -0.7562    5.6487 C   0  0  0  0  0  0  0  0  0  0  0  0
  -29.3662    0.7099    5.4844 C   0  0  0  0  0  0  0  0  0  0  0  0
  -30.2141    0.1952    5.3574 C   0  0  0  0  0  0  0  0  0  0  0  0
  -31.0911    0.6751    5.3316 N   0  0  0  0  0  0  0  0  0  0  0  0
  -31.7719    0.5112    6.0455 C   0  0  0  0  0  0  0  0  0  0  0  0
  -31.2873    1.3187    4.5919 C   0  0  0  0  0  0  0  0  0  0  0  0
  -25.0933    2.2701    4.9291 N   0  0  0  0  0  0  0  0  0  0  0  0
  -25.0978    2.7935    4.5968 H   0  0  0  0  0  0  0  0  0  0  0  0
  -23.6980    1.2478    4.8372 N   0  0  0  0  0  0  0  0  0  0  0  0
  -23.9207    2.2888    6.2036 N   0  0  0  0  0  0  0  0  0  0  0  0
  -22.8421    0.9134    5.2314 C   0  0  0  0  0  0  0  0  0  0  0  0
  -24.2373    1.9355    5.3232 C   0  0  0  0  0  0  0  0  0  0  0  0
  -22.5254    1.2666    6.1117 C   0  0  0  0  0  0  0  0  0  0  0  0
  -23.0647    1.9543    6.5978 C   0  0  0  0  0  0  0  0  0  0  0  0
  -21.2239   -0.9238    4.4211 N   0  0  0  0  0  0  0  0  0  0  0  0
  -22.3970   -0.0189    3.7865 C   0  0  0  0  0  0  0  0  0  0  0  0
  -21.7267   -0.7331    3.5850 C   0  0  0  0  0  0  0  0  0  0  0  0
  -22.3029    0.2257    4.7454 C   0  0  0  0  0  0  0  0  0  0  0  0
  -21.5794   -0.3324    5.1368 C   0  0  0  0  0  0  0  0  0  0  0  0
  -23.0053    0.3136    3.0657 C   0  0  0  0  0  0  0  0  0  0  0  0
  -21.6646   -1.1148    2.6628 C   0  0  0  0  0  0  0  0  0  0  0  0
  -20.4888   -1.5938    4.5243 C   0  0  0  0  0  0  0  0  0  0  0  0
  -22.9433   -0.0682    2.1435 C   0  0  0  0  0  0  0  0  0  0  0  0
  -22.2729   -0.7824    1.9421 C   0  0  0  0  0  0  0  0  0  0  0  0
 13  5  1  0
 13 14  1  0
  7  9  2  0
 15 17  1  0
 15  1  1  0
 15 16  1  0
 30 32  1  0
 30 34  1  0
 30 37  1  0
 19 18  1  0
 19 20  1  0
 19 21  1  0
 22  4  1  0
 22 27  1  0
 22 23  1  0
  8  2  1  0
  8  9  1  0
  8 10  1  0
 24 26  2  0
 24 27  1  0
 25 27  2  0
 25 29  1  0
 17 18  1  0
  1  2  2  0
  1  3  1  0
 31 32  2  0
 31 33  1  0
 31 35  1  0
 32 36  1  0
 33 34  2  0
 33 26  1  0
  2  6  1  0
  3  5  2  0
  4  5  1  0
  4  6  2  0
 26 28  1  0
 35 38  2  0
 36 39  2  0
 38 39  1  0
 28 29  2  0
  9 11  1  0
 11 12  2  0
M  END
> <PUBCHEM_COMPOUND_CID>
71496458

> <PUBCHEM_COMPOUND_CANONICALIZED>
1

> <PUBCHEM_CACTVS_COMPLEXITY>
752

> <PUBCHEM_CACTVS_HBOND_ACCEPTOR>
7

> <PUBCHEM_CACTVS_HBOND_DONOR>
2

> <PUBCHEM_CACTVS_ROTATABLE_BOND>
10

> <PUBCHEM_CACTVS_SUBSKEYS>
AAADcfB7sAAAAAAAAAAAAAAAAAAAAWAAAAA8YIAAAAAAAFgB/AAAHgAQAAAADAzBngY/1vfMFACoAzV3dACCiCkxIqAJ2CA/fNiObuLE+duVNChu1BvY6Kew0MMOgECAAgQCECAAgQAECAQgQAAAAAAAAA==

> <PUBCHEM_IUPAC_OPENEYE_NAME>
N-[2-[2-(dimethylamino)ethyl-methyl-amino]-4-methoxy-5-[[4-(1-methylindol-3-yl)pyrimidin-2-yl]amino]phenyl]prop-2-enamide

> <PUBCHEM_IUPAC_CAS_NAME>
N-[2-[2-(dimethylamino)ethyl-methylamino]-4-methoxy-5-[[4-(1-methyl-3-indolyl)-2-pyrimidinyl]amino]phenyl]-2-propenamide

> <PUBCHEM_IUPAC_NAME_MARKUP>
<I>N</I>-[2-[2-(dimethylamino)ethyl-methylamino]-4-methoxy-5-[[4-(1-methylindol-3-yl)pyrimidin-2-yl]amino]phenyl]prop-2-enamide

> <PUBCHEM_IUPAC_NAME>
N-[2-[2-(dimethylamino)ethyl-methylamino]-4-methoxy-5-[[4-(1-methylindol-3-yl)pyrimidin-2-yl]amino]phenyl]prop-2-enamide

> <PUBCHEM_IUPAC_SYSTEMATIC_NAME>
N-[2-[2-(dimethylamino)ethyl-methyl-amino]-4-methoxy-5-[[4-(1-methylindol-3-yl)pyrimidin-2-yl]amino]phenyl]prop-2-enamide

> <PUBCHEM_IUPAC_TRADITIONAL_NAME>
N-[2-[2-(dimethylamino)ethyl-methyl-amino]-4-methoxy-5-[[4-(1-methylindol-3-yl)pyrimidin-2-yl]amino]phenyl]acrylamide

> <PUBCHEM_IUPAC_INCHI>
InChI=1S/C28H33N7O2/c1-7-27(36)30-22-16-23(26(37-6)17-25(22)34(4)15-14-33(2)3)32-28-29-13-12-21(31-28)20-18-35(5)24-11-9-8-10-19(20)24/h7-13,16-18H,1,14-15H2,2-6H3,(H,30,36)(H,29,31,32)

> <PUBCHEM_IUPAC_INCHIKEY>
DUYJMQONPNNFPI-UHFFFAOYSA-N

> <PUBCHEM_XLOGP3_AA>
3.7

> <PUBCHEM_EXACT_MASS>
499.26957332

> <PUBCHEM_MOLECULAR_FORMULA>
C28H33N7O2

> <PUBCHEM_MOLECULAR_WEIGHT>
499.6

> <PUBCHEM_REFERENCE_STANDARDIZATION>
Bypass - this structure was created from CID 78357807

> <PUBCHEM_SMILES>
CN1C=C(C2=CC=CC=C21)C3=NC(=NC=C3)NC4=C(C=C(C(=C4)NC(=O)C=C)N(C)CCN(C)C)OC

> <PUBCHEM_OPENEYE_CAN_SMILES>
CN1C=C(C2=CC=CC=C21)C3=NC(=NC=C3)NC4=C(C=C(C(=C4)NC(=O)C=C)N(C)CCN(C)C)OC

> <PUBCHEM_OPENEYE_ISO_SMILES>
CN1C=C(C2=CC=CC=C21)C3=NC(=NC=C3)NC4=C(C=C(C(=C4)NC(=O)C=C)N(C)CCN(C)C)OC

> <PUBCHEM_CACTVS_TPSA>
87.6

> <PUBCHEM_MONOISOTOPIC_WEIGHT>
499.26957332

> <PUBCHEM_TOTAL_CHARGE>
0

> <PUBCHEM_HEAVY_ATOM_COUNT>
37

> <PUBCHEM_ATOM_DEF_STEREO_COUNT>
0

> <PUBCHEM_ATOM_UDEF_STEREO_COUNT>
0

> <PUBCHEM_BOND_DEF_STEREO_COUNT>
0

> <PUBCHEM_BOND_UDEF_STEREO_COUNT>
0

> <PUBCHEM_ISOTOPIC_ATOM_COUNT>
0

> <PUBCHEM_COMPONENT_COUNT>
1

> <PUBCHEM_CACTVS_TAUTO_COUNT>
-1

> <PUBCHEM_COORDINATE_TYPE>
1
5
255

> <PUBCHEM_BONDANNOTATIONS>
11  16  8
11  17  8
13  14  8
13  15  8
13  24  8
14  25  8
15  18  8
16  22  8
17  21  8
19  21  8
19  22  8
23  32  8
24  30  8
25  31  8
30  31  8
32  33  8
4  14  8
4  18  8
8  23  8
8  29  8
9  29  8
9  33  8

> <minimizedAffinity>
-6.57717

> <CNNscore>
0.0106580881

> <CNNaffinity>
3.9851243496

> <CNN_VS>
0.0424738079

> <CNNaffinity_variance>
2.1455497742

$$$$
71496458


 39 42  0  0  0  0  0  0  0  0999 V2000
   -7.0650   -0.4513    7.5269 C   0  0  0  0  0  0  0  0  0  0  0  0
   -7.2456   -1.2536    8.0958 C   0  0  0  0  0  0  0  0  0  0  0  0
   -6.2956    0.1505    7.7411 C   0  0  0  0  0  0  0  0  0  0  0  0
   -5.8876   -0.8523    9.0930 C   0  0  0  0  0  0  0  0  0  0  0  0
   -5.7069   -0.0499    8.5241 C   0  0  0  0  0  0  0  0  0  0  0  0
   -6.6570   -1.4541    8.8788 C   0  0  0  0  0  0  0  0  0  0  0  0
   -6.9695   -3.2318    7.9940 O   0  0  0  0  0  0  0  0  0  0  0  0
   -8.0150   -1.8554    7.8815 N   0  0  0  0  0  0  0  0  0  0  0  0
   -7.8769   -2.8446    7.8306 C   0  0  0  0  0  0  0  0  0  0  0  0
   -8.5776   -1.6154    7.7802 H   0  0  0  0  0  0  0  0  0  0  0  0
   -8.6463   -3.4464    7.6163 C   0  0  0  0  0  0  0  0  0  0  0  0
   -8.5063   -4.4347    7.5560 C   0  0  0  0  0  0  0  0  0  0  0  0
   -4.9376    0.5519    8.7383 O   0  0  0  0  0  0  0  0  0  0  0  0
   -4.5894    1.1839    8.0460 C   0  0  0  0  0  0  0  0  0  0  0  0
   -7.6538   -0.2508    6.7437 N   0  0  0  0  0  0  0  0  0  0  0  0
   -7.3773   -0.5330    5.8251 C   0  0  0  0  0  0  0  0  0  0  0  0
   -8.5190    0.2320    6.8793 C   0  0  0  0  0  0  0  0  0  0  0  0
   -9.0901    0.4650    6.0923 C   0  0  0  0  0  0  0  0  0  0  0  0
   -9.8347    1.1250    6.1928 N   0  0  0  0  0  0  0  0  0  0  0  0
  -10.4528    1.0658    6.9767 C   0  0  0  0  0  0  0  0  0  0  0  0
   -9.9612    1.8441    5.5095 C   0  0  0  0  0  0  0  0  0  0  0  0
   -5.2989   -1.0528    9.8761 N   0  0  0  0  0  0  0  0  0  0  0  0
   -5.2098   -0.6238   10.3148 H   0  0  0  0  0  0  0  0  0  0  0  0
   -5.1631   -2.6015   10.6397 N   0  0  0  0  0  0  0  0  0  0  0  0
   -4.0993   -2.1808    9.3391 N   0  0  0  0  0  0  0  0  0  0  0  0
   -4.7179   -3.4938   10.7152 C   0  0  0  0  0  0  0  0  0  0  0  0
   -4.8538   -1.9451    9.9517 C   0  0  0  0  0  0  0  0  0  0  0  0
   -3.9635   -3.7296   10.1027 C   0  0  0  0  0  0  0  0  0  0  0  0
   -3.6542   -3.0731    9.4146 C   0  0  0  0  0  0  0  0  0  0  0  0
   -5.1640   -4.9744   12.7789 N   0  0  0  0  0  0  0  0  0  0  0  0
   -5.7494   -4.8228   11.2849 C   0  0  0  0  0  0  0  0  0  0  0  0
   -5.8344   -5.3350   12.1396 C   0  0  0  0  0  0  0  0  0  0  0  0
   -5.0272   -4.1501   11.4033 C   0  0  0  0  0  0  0  0  0  0  0  0
   -4.6661   -4.2436   12.3247 C   0  0  0  0  0  0  0  0  0  0  0  0
   -6.3444   -5.0397   10.5109 C   0  0  0  0  0  0  0  0  0  0  0  0
   -6.5143   -6.0639   12.2203 C   0  0  0  0  0  0  0  0  0  0  0  0
   -5.0161   -5.2916   13.7157 C   0  0  0  0  0  0  0  0  0  0  0  0
   -7.0241   -5.7686   10.5915 C   0  0  0  0  0  0  0  0  0  0  0  0
   -7.1091   -6.2808   11.4462 C   0  0  0  0  0  0  0  0  0  0  0  0
 13  5  1  0
 13 14  1  0
  7  9  2  0
 15 17  1  0
 15  1  1  0
 15 16  1  0
 30 32  1  0
 30 34  1  0
 30 37  1  0
 19 18  1  0
 19 20  1  0
 19 21  1  0
 22  4  1  0
 22 27  1  0
 22 23  1  0
  8  2  1  0
  8  9  1  0
  8 10  1  0
 24 26  2  0
 24 27  1  0
 25 27  2  0
 25 29  1  0
 17 18  1  0
  1  2  2  0
  1  3  1  0
 31 32  2  0
 31 33  1  0
 31 35  1  0
 32 36  1  0
 33 34  2  0
 33 26  1  0
  2  6  1  0
  3  5  2  0
  4  5  1  0
  4  6  2  0
 26 28  1  0
 35 38  2  0
 36 39  2  0
 38 39  1  0
 28 29  2  0
  9 11  1  0
 11 12  2  0
M  END
> <PUBCHEM_COMPOUND_CID>
71496458

> <PUBCHEM_COMPOUND_CANONICALIZED>
1

> <PUBCHEM_CACTVS_COMPLEXITY>
752

> <PUBCHEM_CACTVS_HBOND_ACCEPTOR>
7

> <PUBCHEM_CACTVS_HBOND_DONOR>
2

> <PUBCHEM_CACTVS_ROTATABLE_BOND>
10

> <PUBCHEM_CACTVS_SUBSKEYS>
AAADcfB7sAAAAAAAAAAAAAAAAAAAAWAAAAA8YIAAAAAAAFgB/AAAHgAQAAAADAzBngY/1vfMFACoAzV3dACCiCkxIqAJ2CA/fNiObuLE+duVNChu1BvY6Kew0MMOgECAAgQCECAAgQAECAQgQAAAAAAAAA==

> <PUBCHEM_IUPAC_OPENEYE_NAME>
N-[2-[2-(dimethylamino)ethyl-methyl-amino]-4-methoxy-5-[[4-(1-methylindol-3-yl)pyrimidin-2-yl]amino]phenyl]prop-2-enamide

> <PUBCHEM_IUPAC_CAS_NAME>
N-[2-[2-(dimethylamino)ethyl-methylamino]-4-methoxy-5-[[4-(1-methyl-3-indolyl)-2-pyrimidinyl]amino]phenyl]-2-propenamide

> <PUBCHEM_IUPAC_NAME_MARKUP>
<I>N</I>-[2-[2-(dimethylamino)ethyl-methylamino]-4-methoxy-5-[[4-(1-methylindol-3-yl)pyrimidin-2-yl]amino]phenyl]prop-2-enamide

> <PUBCHEM_IUPAC_NAME>
N-[2-[2-(dimethylamino)ethyl-methylamino]-4-methoxy-5-[[4-(1-methylindol-3-yl)pyrimidin-2-yl]amino]phenyl]prop-2-enamide

> <PUBCHEM_IUPAC_SYSTEMATIC_NAME>
N-[2-[2-(dimethylamino)ethyl-methyl-amino]-4-methoxy-5-[[4-(1-methylindol-3-yl)pyrimidin-2-yl]amino]phenyl]prop-2-enamide

> <PUBCHEM_IUPAC_TRADITIONAL_NAME>
N-[2-[2-(dimethylamino)ethyl-methyl-amino]-4-methoxy-5-[[4-(1-methylindol-3-yl)pyrimidin-2-yl]amino]phenyl]acrylamide

> <PUBCHEM_IUPAC_INCHI>
InChI=1S/C28H33N7O2/c1-7-27(36)30-22-16-23(26(37-6)17-25(22)34(4)15-14-33(2)3)32-28-29-13-12-21(31-28)20-18-35(5)24-11-9-8-10-19(20)24/h7-13,16-18H,1,14-15H2,2-6H3,(H,30,36)(H,29,31,32)

> <PUBCHEM_IUPAC_INCHIKEY>
DUYJMQONPNNFPI-UHFFFAOYSA-N

> <PUBCHEM_XLOGP3_AA>
3.7

> <PUBCHEM_EXACT_MASS>
499.26957332

> <PUBCHEM_MOLECULAR_FORMULA>
C28H33N7O2

> <PUBCHEM_MOLECULAR_WEIGHT>
499.6

> <PUBCHEM_REFERENCE_STANDARDIZATION>
Bypass - this structure was created from CID 78357807

> <PUBCHEM_SMILES>
CN1C=C(C2=CC=CC=C21)C3=NC(=NC=C3)NC4=C(C=C(C(=C4)NC(=O)C=C)N(C)CCN(C)C)OC

> <PUBCHEM_OPENEYE_CAN_SMILES>
CN1C=C(C2=CC=CC=C21)C3=NC(=NC=C3)NC4=C(C=C(C(=C4)NC(=O)C=C)N(C)CCN(C)C)OC

> <PUBCHEM_OPENEYE_ISO_SMILES>
CN1C=C(C2=CC=CC=C21)C3=NC(=NC=C3)NC4=C(C=C(C(=C4)NC(=O)C=C)N(C)CCN(C)C)OC

> <PUBCHEM_CACTVS_TPSA>
87.6

> <PUBCHEM_MONOISOTOPIC_WEIGHT>
499.26957332

> <PUBCHEM_TOTAL_CHARGE>
0

> <PUBCHEM_HEAVY_ATOM_COUNT>
37

> <PUBCHEM_ATOM_DEF_STEREO_COUNT>
0

> <PUBCHEM_ATOM_UDEF_STEREO_COUNT>
0

> <PUBCHEM_BOND_DEF_STEREO_COUNT>
0

> <PUBCHEM_BOND_UDEF_STEREO_COUNT>
0

> <PUBCHEM_ISOTOPIC_ATOM_COUNT>
0

> <PUBCHEM_COMPONENT_COUNT>
1

> <PUBCHEM_CACTVS_TAUTO_COUNT>
-1

> <PUBCHEM_COORDINATE_TYPE>
1
5
255

> <PUBCHEM_BONDANNOTATIONS>
11  16  8
11  17  8
13  14  8
13  15  8
13  24  8
14  25  8
15  18  8
16  22  8
17  21  8
19  21  8
19  22  8
23  32  8
24  30  8
25  31  8
30  31  8
32  33  8
4  14  8
4  18  8
8  23  8
8  29  8
9  29  8
9  33  8

> <minimizedAffinity>
-9.14466

> <CNNscore>
0.0088191135

> <CNNaffinity>
4.3289871216

> <CNN_VS>
0.0381778292

> <CNNaffinity_variance>
3.8031742573

$$$$
71496458


 39 42  0  0  0  0  0  0  0  0999 V2000
  -16.3191    6.1030   -9.4163 C   0  0  0  0  0  0  0  0  0  0  0  0
  -16.5258    6.1147   -8.4380 C   0  0  0  0  0  0  0  0  0  0  0  0
  -15.8036    6.8548   -9.8275 C   0  0  0  0  0  0  0  0  0  0  0  0
  -15.7015    7.6299   -8.2819 C   0  0  0  0  0  0  0  0  0  0  0  0
  -15.4948    7.6183   -9.2603 C   0  0  0  0  0  0  0  0  0  0  0  0
  -16.2170    6.8781   -7.8708 C   0  0  0  0  0  0  0  0  0  0  0  0
  -18.0672    6.5049   -7.2248 O   0  0  0  0  0  0  0  0  0  0  0  0
  -17.0413    5.3628   -8.0270 N   0  0  0  0  0  0  0  0  0  0  0  0
  -17.8121    5.5580   -7.4203 C   0  0  0  0  0  0  0  0  0  0  0  0
  -16.8832    4.7757   -8.1481 H   0  0  0  0  0  0  0  0  0  0  0  0
  -18.3276    4.8061   -7.0093 C   0  0  0  0  0  0  0  0  0  0  0  0
  -18.9747    4.9895   -6.2693 C   0  0  0  0  0  0  0  0  0  0  0  0
  -14.9793    8.3701   -9.6714 O   0  0  0  0  0  0  0  0  0  0  0  0
  -14.8254    8.3894  -10.6593 C   0  0  0  0  0  0  0  0  0  0  0  0
  -16.6280    5.3395   -9.9836 N   0  0  0  0  0  0  0  0  0  0  0  0
  -17.4618    5.4269  -10.5287 C   0  0  0  0  0  0  0  0  0  0  0  0
  -16.1030    4.4886  -10.0057 C   0  0  0  0  0  0  0  0  0  0  0  0
  -16.3347    3.7752  -10.6670 C   0  0  0  0  0  0  0  0  0  0  0  0
  -15.8163    2.9202  -10.6822 N   0  0  0  0  0  0  0  0  0  0  0  0
  -16.0384    2.1894  -10.0368 C   0  0  0  0  0  0  0  0  0  0  0  0
  -15.0760    2.7960  -11.3428 C   0  0  0  0  0  0  0  0  0  0  0  0
  -15.3926    8.3934   -7.7147 N   0  0  0  0  0  0  0  0  0  0  0  0
  -14.7942    8.5558   -7.7126 H   0  0  0  0  0  0  0  0  0  0  0  0
  -15.9910    8.8468   -6.1537 N   0  0  0  0  0  0  0  0  0  0  0  0
  -16.7628    9.4448   -7.5844 N   0  0  0  0  0  0  0  0  0  0  0  0
  -16.6471    9.3485   -5.5900 C   0  0  0  0  0  0  0  0  0  0  0  0
  -16.0488    8.8950   -7.1509 C   0  0  0  0  0  0  0  0  0  0  0  0
  -17.3611    9.8983   -6.0235 C   0  0  0  0  0  0  0  0  0  0  0  0
  -17.4189    9.9464   -7.0206 C   0  0  0  0  0  0  0  0  0  0  0  0
  -16.6927    8.7650   -3.0785 N   0  0  0  0  0  0  0  0  0  0  0  0
  -16.2464   10.0149   -3.9930 C   0  0  0  0  0  0  0  0  0  0  0  0
  -16.3106    9.6824   -3.0521 C   0  0  0  0  0  0  0  0  0  0  0  0
  -16.5892    9.3002   -4.5929 C   0  0  0  0  0  0  0  0  0  0  0  0
  -16.8645    8.5294   -4.0289 C   0  0  0  0  0  0  0  0  0  0  0  0
  -15.8825   10.9281   -4.1768 C   0  0  0  0  0  0  0  0  0  0  0  0
  -16.0110   10.2630   -2.2950 C   0  0  0  0  0  0  0  0  0  0  0  0
  -16.8728    8.1811   -2.2870 C   0  0  0  0  0  0  0  0  0  0  0  0
  -15.5829   11.5087   -3.4198 C   0  0  0  0  0  0  0  0  0  0  0  0
  -15.6471   11.1761   -2.4789 C   0  0  0  0  0  0  0  0  0  0  0  0
 13  5  1  0
 13 14  1  0
  7  9  2  0
 15 17  1  0
 15  1  1  0
 15 16  1  0
 30 32  1  0
 30 34  1  0
 30 37  1  0
 19 18  1  0
 19 20  1  0
 19 21  1  0
 22  4  1  0
 22 27  1  0
 22 23  1  0
  8  2  1  0
  8  9  1  0
  8 10  1  0
 24 26  2  0
 24 27  1  0
 25 27  2  0
 25 29  1  0
 17 18  1  0
  1  2  2  0
  1  3  1  0
 31 32  2  0
 31 33  1  0
 31 35  1  0
 32 36  1  0
 33 34  2  0
 33 26  1  0
  2  6  1  0
  3  5  2  0
  4  5  1  0
  4  6  2  0
 26 28  1  0
 35 38  2  0
 36 39  2  0
 38 39  1  0
 28 29  2  0
  9 11  1  0
 11 12  2  0
M  END
> <PUBCHEM_COMPOUND_CID>
71496458

> <PUBCHEM_COMPOUND_CANONICALIZED>
1

> <PUBCHEM_CACTVS_COMPLEXITY>
752

> <PUBCHEM_CACTVS_HBOND_ACCEPTOR>
7

> <PUBCHEM_CACTVS_HBOND_DONOR>
2

> <PUBCHEM_CACTVS_ROTATABLE_BOND>
10

> <PUBCHEM_CACTVS_SUBSKEYS>
AAADcfB7sAAAAAAAAAAAAAAAAAAAAWAAAAA8YIAAAAAAAFgB/AAAHgAQAAAADAzBngY/1vfMFACoAzV3dACCiCkxIqAJ2CA/fNiObuLE+duVNChu1BvY6Kew0MMOgECAAgQCECAAgQAECAQgQAAAAAAAAA==

> <PUBCHEM_IUPAC_OPENEYE_NAME>
N-[2-[2-(dimethylamino)ethyl-methyl-amino]-4-methoxy-5-[[4-(1-methylindol-3-yl)pyrimidin-2-yl]amino]phenyl]prop-2-enamide

> <PUBCHEM_IUPAC_CAS_NAME>
N-[2-[2-(dimethylamino)ethyl-methylamino]-4-methoxy-5-[[4-(1-methyl-3-indolyl)-2-pyrimidinyl]amino]phenyl]-2-propenamide

> <PUBCHEM_IUPAC_NAME_MARKUP>
<I>N</I>-[2-[2-(dimethylamino)ethyl-methylamino]-4-methoxy-5-[[4-(1-methylindol-3-yl)pyrimidin-2-yl]amino]phenyl]prop-2-enamide

> <PUBCHEM_IUPAC_NAME>
N-[2-[2-(dimethylamino)ethyl-methylamino]-4-methoxy-5-[[4-(1-methylindol-3-yl)pyrimidin-2-yl]amino]phenyl]prop-2-enamide

> <PUBCHEM_IUPAC_SYSTEMATIC_NAME>
N-[2-[2-(dimethylamino)ethyl-methyl-amino]-4-methoxy-5-[[4-(1-methylindol-3-yl)pyrimidin-2-yl]amino]phenyl]prop-2-enamide

> <PUBCHEM_IUPAC_TRADITIONAL_NAME>
N-[2-[2-(dimethylamino)ethyl-methyl-amino]-4-methoxy-5-[[4-(1-methylindol-3-yl)pyrimidin-2-yl]amino]phenyl]acrylamide

> <PUBCHEM_IUPAC_INCHI>
InChI=1S/C28H33N7O2/c1-7-27(36)30-22-16-23(26(37-6)17-25(22)34(4)15-14-33(2)3)32-28-29-13-12-21(31-28)20-18-35(5)24-11-9-8-10-19(20)24/h7-13,16-18H,1,14-15H2,2-6H3,(H,30,36)(H,29,31,32)

> <PUBCHEM_IUPAC_INCHIKEY>
DUYJMQONPNNFPI-UHFFFAOYSA-N

> <PUBCHEM_XLOGP3_AA>
3.7

> <PUBCHEM_EXACT_MASS>
499.26957332

> <PUBCHEM_MOLECULAR_FORMULA>
C28H33N7O2

> <PUBCHEM_MOLECULAR_WEIGHT>
499.6

> <PUBCHEM_REFERENCE_STANDARDIZATION>
Bypass - this structure was created from CID 78357807

> <PUBCHEM_SMILES>
CN1C=C(C2=CC=CC=C21)C3=NC(=NC=C3)NC4=C(C=C(C(=C4)NC(=O)C=C)N(C)CCN(C)C)OC

> <PUBCHEM_OPENEYE_CAN_SMILES>
CN1C=C(C2=CC=CC=C21)C3=NC(=NC=C3)NC4=C(C=C(C(=C4)NC(=O)C=C)N(C)CCN(C)C)OC

> <PUBCHEM_OPENEYE_ISO_SMILES>
CN1C=C(C2=CC=CC=C21)C3=NC(=NC=C3)NC4=C(C=C(C(=C4)NC(=O)C=C)N(C)CCN(C)C)OC

> <PUBCHEM_CACTVS_TPSA>
87.6

> <PUBCHEM_MONOISOTOPIC_WEIGHT>
499.26957332

> <PUBCHEM_TOTAL_CHARGE>
0

> <PUBCHEM_HEAVY_ATOM_COUNT>
37

> <PUBCHEM_ATOM_DEF_STEREO_COUNT>
0

> <PUBCHEM_ATOM_UDEF_STEREO_COUNT>
0

> <PUBCHEM_BOND_DEF_STEREO_COUNT>
0

> <PUBCHEM_BOND_UDEF_STEREO_COUNT>
0

> <PUBCHEM_ISOTOPIC_ATOM_COUNT>
0

> <PUBCHEM_COMPONENT_COUNT>
1

> <PUBCHEM_CACTVS_TAUTO_COUNT>
-1

> <PUBCHEM_COORDINATE_TYPE>
1
5
255

> <PUBCHEM_BONDANNOTATIONS>
11  16  8
11  17  8
13  14  8
13  15  8
13  24  8
14  25  8
15  18  8
16  22  8
17  21  8
19  21  8
19  22  8
23  32  8
24  30  8
25  31  8
30  31  8
32  33  8
4  14  8
4  18  8
8  23  8
8  29  8
9  29  8
9  33  8

> <minimizedAffinity>
-6.17063

> <CNNscore>
0.0087397350

> <CNNaffinity>
3.1911907196

> <CNN_VS>
0.0278901607

> <CNNaffinity_variance>
3.2281959057

$$$$
71496458


 39 42  0  0  0  0  0  0  0  0999 V2000
   -3.8041   -1.7312    8.7646 C   0  0  0  0  0  0  0  0  0  0  0  0
   -4.7180   -1.6071    8.3781 C   0  0  0  0  0  0  0  0  0  0  0  0
   -3.0471   -1.1573    8.4525 C   0  0  0  0  0  0  0  0  0  0  0  0
   -4.1178   -0.3352    7.3673 C   0  0  0  0  0  0  0  0  0  0  0  0
   -3.2039   -0.4592    7.7538 C   0  0  0  0  0  0  0  0  0  0  0  0
   -4.8749   -0.9091    7.6794 C   0  0  0  0  0  0  0  0  0  0  0  0
   -6.3967   -0.7627    9.0628 O   0  0  0  0  0  0  0  0  0  0  0  0
   -5.4750   -2.1811    8.6903 N   0  0  0  0  0  0  0  0  0  0  0  0
   -6.3144   -1.7588    9.0327 C   0  0  0  0  0  0  0  0  0  0  0  0
   -5.4241   -2.7988    8.6716 H   0  0  0  0  0  0  0  0  0  0  0  0
   -7.0715   -2.3328    9.3449 C   0  0  0  0  0  0  0  0  0  0  0  0
   -7.7683   -2.6378    8.6957 C   0  0  0  0  0  0  0  0  0  0  0  0
   -2.4468    0.1147    7.4417 O   0  0  0  0  0  0  0  0  0  0  0  0
   -1.6076    0.1729    7.9823 C   0  0  0  0  0  0  0  0  0  0  0  0
   -3.6473   -2.4293    9.4633 N   0  0  0  0  0  0  0  0  0  0  0  0
   -3.6068   -3.3946    9.2054 C   0  0  0  0  0  0  0  0  0  0  0  0
   -3.5310   -2.1620   10.4199 C   0  0  0  0  0  0  0  0  0  0  0  0
   -2.9215   -2.6860   11.0149 C   0  0  0  0  0  0  0  0  0  0  0  0
   -2.7823   -2.4013   11.9633 N   0  0  0  0  0  0  0  0  0  0  0  0
   -2.8713   -1.4373   12.2141 C   0  0  0  0  0  0  0  0  0  0  0  0
   -2.5540   -3.0804   12.6610 C   0  0  0  0  0  0  0  0  0  0  0  0
   -4.2746    0.3629    6.6686 N   0  0  0  0  0  0  0  0  0  0  0  0
   -3.9829    0.3261    6.1228 H   0  0  0  0  0  0  0  0  0  0  0  0
   -5.8611    1.0519    6.5760 N   0  0  0  0  0  0  0  0  0  0  0  0
   -4.5698    1.9460    7.3063 N   0  0  0  0  0  0  0  0  0  0  0  0
   -6.4883    1.8092    6.7576 C   0  0  0  0  0  0  0  0  0  0  0  0
   -4.9019    1.1202    6.8503 C   0  0  0  0  0  0  0  0  0  0  0  0
   -6.1563    2.6349    7.2136 C   0  0  0  0  0  0  0  0  0  0  0  0
   -5.1971    2.7033    7.4879 C   0  0  0  0  0  0  0  0  0  0  0  0
   -9.0188    1.3923    6.4876 N   0  0  0  0  0  0  0  0  0  0  0  0
   -7.8400    2.0932    5.6408 C   0  0  0  0  0  0  0  0  0  0  0  0
   -8.8163    1.8767    5.6434 C   0  0  0  0  0  0  0  0  0  0  0  0
   -7.4475    1.7408    6.4833 C   0  0  0  0  0  0  0  0  0  0  0  0
   -8.1744    1.3085    7.0056 C   0  0  0  0  0  0  0  0  0  0  0  0
   -7.4389    2.5845    4.8676 C   0  0  0  0  0  0  0  0  0  0  0  0
   -9.3914    2.1515    4.8728 C   0  0  0  0  0  0  0  0  0  0  0  0
   -9.9155    1.0492    6.7669 C   0  0  0  0  0  0  0  0  0  0  0  0
   -8.0140    2.8592    4.0970 C   0  0  0  0  0  0  0  0  0  0  0  0
   -8.9903    2.6427    4.0997 C   0  0  0  0  0  0  0  0  0  0  0  0
 13  5  1  0
 13 14  1  0
  7  9  2  0
 15 17  1  0
 15  1  1  0
 15 16  1  0
 30 32  1  0
 30 34  1  0
 30 37  1  0
 19 18  1  0
 19 20  1  0
 19 21  1  0
 22  4  1  0
 22 27  1  0
 22 23  1  0
  8  2  1  0
  8  9  1  0
  8 10  1  0
 24 26  2  0
 24 27  1  0
 25 27  2  0
 25 29  1  0
 17 18  1  0
  1  2  2  0
  1  3  1  0
 31 32  2  0
 31 33  1  0
 31 35  1  0
 32 36  1  0
 33 34  2  0
 33 26  1  0
  2  6  1  0
  3  5  2  0
  4  5  1  0
  4  6  2  0
 26 28  1  0
 35 38  2  0
 36 39  2  0
 38 39  1  0
 28 29  2  0
  9 11  1  0
 11 12  2  0
M  END
> <PUBCHEM_COMPOUND_CID>
71496458

> <PUBCHEM_COMPOUND_CANONICALIZED>
1

> <PUBCHEM_CACTVS_COMPLEXITY>
752

> <PUBCHEM_CACTVS_HBOND_ACCEPTOR>
7

> <PUBCHEM_CACTVS_HBOND_DONOR>
2

> <PUBCHEM_CACTVS_ROTATABLE_BOND>
10

> <PUBCHEM_CACTVS_SUBSKEYS>
AAADcfB7sAAAAAAAAAAAAAAAAAAAAWAAAAA8YIAAAAAAAFgB/AAAHgAQAAAADAzBngY/1vfMFACoAzV3dACCiCkxIqAJ2CA/fNiObuLE+duVNChu1BvY6Kew0MMOgECAAgQCECAAgQAECAQgQAAAAAAAAA==

> <PUBCHEM_IUPAC_OPENEYE_NAME>
N-[2-[2-(dimethylamino)ethyl-methyl-amino]-4-methoxy-5-[[4-(1-methylindol-3-yl)pyrimidin-2-yl]amino]phenyl]prop-2-enamide

> <PUBCHEM_IUPAC_CAS_NAME>
N-[2-[2-(dimethylamino)ethyl-methylamino]-4-methoxy-5-[[4-(1-methyl-3-indolyl)-2-pyrimidinyl]amino]phenyl]-2-propenamide

> <PUBCHEM_IUPAC_NAME_MARKUP>
<I>N</I>-[2-[2-(dimethylamino)ethyl-methylamino]-4-methoxy-5-[[4-(1-methylindol-3-yl)pyrimidin-2-yl]amino]phenyl]prop-2-enamide

> <PUBCHEM_IUPAC_NAME>
N-[2-[2-(dimethylamino)ethyl-methylamino]-4-methoxy-5-[[4-(1-methylindol-3-yl)pyrimidin-2-yl]amino]phenyl]prop-2-enamide

> <PUBCHEM_IUPAC_SYSTEMATIC_NAME>
N-[2-[2-(dimethylamino)ethyl-methyl-amino]-4-methoxy-5-[[4-(1-methylindol-3-yl)pyrimidin-2-yl]amino]phenyl]prop-2-enamide

> <PUBCHEM_IUPAC_TRADITIONAL_NAME>
N-[2-[2-(dimethylamino)ethyl-methyl-amino]-4-methoxy-5-[[4-(1-methylindol-3-yl)pyrimidin-2-yl]amino]phenyl]acrylamide

> <PUBCHEM_IUPAC_INCHI>
InChI=1S/C28H33N7O2/c1-7-27(36)30-22-16-23(26(37-6)17-25(22)34(4)15-14-33(2)3)32-28-29-13-12-21(31-28)20-18-35(5)24-11-9-8-10-19(20)24/h7-13,16-18H,1,14-15H2,2-6H3,(H,30,36)(H,29,31,32)

> <PUBCHEM_IUPAC_INCHIKEY>
DUYJMQONPNNFPI-UHFFFAOYSA-N

> <PUBCHEM_XLOGP3_AA>
3.7

> <PUBCHEM_EXACT_MASS>
499.26957332

> <PUBCHEM_MOLECULAR_FORMULA>
C28H33N7O2

> <PUBCHEM_MOLECULAR_WEIGHT>
499.6

> <PUBCHEM_REFERENCE_STANDARDIZATION>
Bypass - this structure was created from CID 78357807

> <PUBCHEM_SMILES>
CN1C=C(C2=CC=CC=C21)C3=NC(=NC=C3)NC4=C(C=C(C(=C4)NC(=O)C=C)N(C)CCN(C)C)OC

> <PUBCHEM_OPENEYE_CAN_SMILES>
CN1C=C(C2=CC=CC=C21)C3=NC(=NC=C3)NC4=C(C=C(C(=C4)NC(=O)C=C)N(C)CCN(C)C)OC

> <PUBCHEM_OPENEYE_ISO_SMILES>
CN1C=C(C2=CC=CC=C21)C3=NC(=NC=C3)NC4=C(C=C(C(=C4)NC(=O)C=C)N(C)CCN(C)C)OC

> <PUBCHEM_CACTVS_TPSA>
87.6

> <PUBCHEM_MONOISOTOPIC_WEIGHT>
499.26957332

> <PUBCHEM_TOTAL_CHARGE>
0

> <PUBCHEM_HEAVY_ATOM_COUNT>
37

> <PUBCHEM_ATOM_DEF_STEREO_COUNT>
0

> <PUBCHEM_ATOM_UDEF_STEREO_COUNT>
0

> <PUBCHEM_BOND_DEF_STEREO_COUNT>
0

> <PUBCHEM_BOND_UDEF_STEREO_COUNT>
0

> <PUBCHEM_ISOTOPIC_ATOM_COUNT>
0

> <PUBCHEM_COMPONENT_COUNT>
1

> <PUBCHEM_CACTVS_TAUTO_COUNT>
-1

> <PUBCHEM_COORDINATE_TYPE>
1
5
255

> <PUBCHEM_BONDANNOTATIONS>
11  16  8
11  17  8
13  14  8
13  15  8
13  24  8
14  25  8
15  18  8
16  22  8
17  21  8
19  21  8
19  22  8
23  32  8
24  30  8
25  31  8
30  31  8
32  33  8
4  14  8
4  18  8
8  23  8
8  29  8
9  29  8
9  33  8

> <minimizedAffinity>
-8.79732

> <CNNscore>
0.0087087462

> <CNNaffinity>
4.9388198853

> <CNN_VS>
0.0430109277

> <CNNaffinity_variance>
2.5594227314

$$$$
