121269225


 43 47  0  0  0  0  0  0  0  0999 V2000
    5.4367  -14.9676    5.9802 N   0  0  0  0  0  0  0  0  0  0  0  0
    4.5963  -14.5837    5.5586 H   0  0  0  0  0  0  0  0  0  0  0  0
    4.3028  -16.5340    7.3016 N   0  0  0  0  0  0  0  0  0  0  0  0
    6.1101  -17.2079    5.8570 N   0  0  0  0  0  0  0  0  0  0  0  0
    5.2753  -16.3011    6.3997 C   0  0  0  0  0  0  0  0  0  0  0  0
    4.1760  -17.8222    7.6822 C   0  0  0  0  0  0  0  0  0  0  0  0
    4.9676  -18.8453    7.2011 C   0  0  0  0  0  0  0  0  0  0  0  0
    5.9278  -18.4755    6.2816 C   0  0  0  0  0  0  0  0  0  0  0  0
    3.1927  -18.1322    8.6088 N   0  0  0  0  0  0  0  0  0  0  0  0
    1.8928  -18.0182    8.2870 N   0  0  0  0  0  0  0  0  0  0  0  0
    2.1640  -18.7460   10.4352 C   0  0  0  0  0  0  0  0  0  0  0  0
    1.2692  -18.3945    9.4069 C   0  0  0  0  0  0  0  0  0  0  0  0
    3.4090  -18.5645    9.8842 C   0  0  0  0  0  0  0  0  0  0  0  0
   -0.1700  -18.4081    9.4642 C   0  0  0  0  0  0  0  0  0  0  0  0
   -0.8430  -17.5051   10.2869 C   0  0  0  0  0  0  0  0  0  0  0  0
   -0.8905  -19.3241    8.6979 C   0  0  0  0  0  0  0  0  0  0  0  0
   -2.2368  -17.5179   10.3433 C   0  0  0  0  0  0  0  0  0  0  0  0
   -2.2841  -19.3371    8.7541 C   0  0  0  0  0  0  0  0  0  0  0  0
   -2.9573  -18.4339    9.5770 C   0  0  0  0  0  0  0  0  0  0  0  0
    1.8562  -19.2062   11.8006 C   0  0  0  0  0  0  0  0  0  0  0  0
    1.9417  -18.1327   12.8025 N   0  0  0  0  0  0  0  0  0  0  0  0
    3.0352  -18.3985   13.7320 C   0  0  0  0  0  0  0  0  0  0  0  0
    0.6744  -18.0084   13.5157 C   0  0  0  0  0  0  0  0  0  0  0  0
    8.8121  -12.4784    5.7224 C   0  0  0  0  0  0  0  0  0  0  0  0
    8.9097  -13.7327    6.3249 C   0  0  0  0  0  0  0  0  0  0  0  0
    7.5911  -12.0471    5.2037 C   0  0  0  0  0  0  0  0  0  0  0  0
    6.4679  -12.8700    5.2876 C   0  0  0  0  0  0  0  0  0  0  0  0
    7.7865  -14.5556    6.4088 C   0  0  0  0  0  0  0  0  0  0  0  0
    6.5658  -14.1243    5.8901 C   0  0  0  0  0  0  0  0  0  0  0  0
   12.0119   -9.7906    5.2582 O   0  0  0  0  0  0  0  0  0  0  0  0
    9.9258  -11.6379    5.6254 N   0  0  0  0  0  0  0  0  0  0  0  0
    9.8173  -10.2772    6.1692 C   0  0  0  0  0  0  0  0  0  0  0  0
   10.8623  -11.7905    4.5066 C   0  0  0  0  0  0  0  0  0  0  0  0
   11.2097   -9.7170    6.4366 C   0  0  0  0  0  0  0  0  0  0  0  0
   12.1990  -11.1490    4.8622 C   0  0  0  0  0  0  0  0  0  0  0  0
   10.0190  -16.5154    6.5361 O   0  0  0  0  0  0  0  0  0  0  0  0
   10.1231  -14.1859    6.8510 N   0  0  0  0  0  0  0  0  0  0  0  0
   10.5911  -15.5034    6.9236 C   0  0  0  0  0  0  0  0  0  0  0  0
   10.7257  -13.4525    7.2189 H   0  0  0  0  0  0  0  0  0  0  0  0
   11.9395  -15.5719    7.5580 C   0  0  0  0  0  0  0  0  0  0  0  0
   12.2726  -16.6055    8.3373 C   0  0  0  0  0  0  0  0  0  0  0  0
    5.2844  -12.4309    4.7738 O   0  0  0  0  0  0  0  0  0  0  0  0
    5.2195  -12.2504    3.3608 C   0  0  0  0  0  0  0  0  0  0  0  0
 30 34  1  0
 30 35  1  0
 42 27  1  0
 42 43  1  0
 36 38  2  0
 31 32  1  0
 31 33  1  0
 31 24  1  0
 37 25  1  0
 37 38  1  0
 37 39  1  0
  1 29  1  0
  1  5  1  0
  1  2  1  0
  9 10  1  0
  9 13  1  0
  9  6  1  0
 21 20  1  0
 21 22  1  0
 21 23  1  0
 10 12  2  0
  3  5  2  0
  3  6  1  0
  4  5  1  0
  4  8  2  0
 32 34  1  0
 33 35  1  0
 24 25  2  0
 24 26  1  0
 25 28  1  0
 26 27  2  0
 27 29  1  0
 28 29  2  0
 11 20  1  0
 11 12  1  0
 11 13  2  0
 12 14  1  0
  6  7  2  0
 14 15  2  0
 14 16  1  0
 38 40  1  0
  7  8  1  0
 15 17  1  0
 16 18  2  0
 40 41  2  0
 17 19  2  0
 18 19  1  0
M  END
> <PUBCHEM_COMPOUND_CID>
121269225

> <PUBCHEM_CONFORMER_RMSD>
1.2

> <PUBCHEM_CONFORMER_DIVERSEORDER>
1
31
30
33
22
2
39
40
42
24
12
19
13
34
32
21
11
18
5
17
38
16
37
14
6
10
23
41
20
8
26
9
35
27
3
25
7
29
36
15
28
4

> <PUBCHEM_MMFF94_PARTIAL_CHARGES>
56
1 -0.56
10 -0.62
11 -0.62
12 0.37
13 0.37
14 0.1
15 0.28
16 0.28
17 0.12
18 -0.15
19 0.08
2 -0.36
20 -0.15
21 0.1
22 -0.18
23 0.45
24 0.23
25 -0.3
26 0.72
27 0.29
28 0.05
29 0.62
3 -0.57
30 0.27
31 0.27
32 -0.15
33 0.28
34 -0.15
35 -0.15
36 0.16
37 -0.14
38 -0.15
39 -0.15
4 -0.84
40 -0.15
41 -0.3
5 -0.55
50 0.15
51 0.15
52 0.37
53 0.4
56 0.15
6 -0.6
63 0.15
67 0.15
68 0.15
69 0.15
7 0.59
70 0.15
71 0.15
72 0.15
73 0.15
74 0.15
75 0.15
8 -0.81
9 -0.71

> <PUBCHEM_EFFECTIVE_ROTOR_COUNT>
12.2

> <PUBCHEM_PHARMACOPHORE_FEATURES>
15
1 1 acceptor
1 2 acceptor
1 3 acceptor
1 4 cation
1 41 hydrophobe
1 5 donor
1 6 donor
1 8 cation
1 9 acceptor
4 6 10 11 26 cation
5 7 9 22 24 25 rings
6 1 4 12 13 15 16 rings
6 10 11 26 27 32 36 rings
6 14 17 18 19 20 21 rings
6 28 34 35 38 39 40 rings

> <PUBCHEM_HEAVY_ATOM_COUNT>
41

> <PUBCHEM_ATOM_DEF_STEREO_COUNT>
0

> <PUBCHEM_ATOM_UDEF_STEREO_COUNT>
0

> <PUBCHEM_BOND_DEF_STEREO_COUNT>
0

> <PUBCHEM_BOND_UDEF_STEREO_COUNT>
0

> <PUBCHEM_ISOTOPIC_ATOM_COUNT>
0

> <PUBCHEM_COMPONENT_COUNT>
1

> <PUBCHEM_CACTVS_TAUTO_COUNT>
21

> <PUBCHEM_CONFORMER_ID>
073A6BE900000001

> <PUBCHEM_MMFF94_ENERGY>
152.827

> <PUBCHEM_FEATURE_SELFOVERLAP>
76.123

> <PUBCHEM_SHAPE_FINGERPRINT>
10462674 296 18055900229362274326
117089 54 18263092144354338331
11963148 33 18115585942575997050
12107698 1 18337393841724322403
12559416 138 18339348712874340727
13560911 23 18408602557088241267
14279260 333 18187357693993441490
14394314 77 18337110056029612200
15001296 14 18265896865773273624
15021287 119 18341047531706515807
15064986 96 18059864904782135415
15444296 121 18408895039955283246
16110190 28 18341895182268168492
19311894 1 18339911736691467118
19319366 153 17760935438911142901
19611394 137 18261683687065550115
19841028 212 18117559742109845515
208703 8 18336543905992583145
21033648 29 17631719491893857602
25019877 29 17275108357344291455
25222932 49 18408041814642871966
3383291 50 18337952393284008379
4461854 278 18130515235522043406
44880168 125 17560794378212456590
9896288 288 18270402668086312625

> <PUBCHEM_SHAPE_MULTIPOLES>
786.3
19.57
6.26
1.77
11.23
3.91
0.4
-14.21
5.68
-4.91
-0.06
-0.46
-1.67
-2

> <PUBCHEM_SHAPE_SELFOVERLAP>
1697.64

> <PUBCHEM_SHAPE_VOLUME>
430.8

> <PUBCHEM_COORDINATE_TYPE>
2
5
10

> <minimizedAffinity>
-6.35343

> <CNNscore>
0.3638094068

> <CNNaffinity>
6.1669974327

> <CNN_VS>
2.2436115742

> <CNNaffinity_variance>
0.0711396858

$$$$
121269225


 43 47  0  0  0  0  0  0  0  0999 V2000
    5.3505  -15.0221    5.8078 N   0  0  0  0  0  0  0  0  0  0  0  0
    4.5237  -14.6116    5.3843 H   0  0  0  0  0  0  0  0  0  0  0  0
    4.3319  -16.5560    7.2552 N   0  0  0  0  0  0  0  0  0  0  0  0
    5.8047  -17.2992    5.4986 N   0  0  0  0  0  0  0  0  0  0  0  0
    5.1527  -16.3571    6.2063 C   0  0  0  0  0  0  0  0  0  0  0  0
    4.1651  -17.8468    7.6107 C   0  0  0  0  0  0  0  0  0  0  0  0
    4.7756  -18.9043    6.9675 C   0  0  0  0  0  0  0  0  0  0  0  0
    5.5927  -18.5672    5.9077 C   0  0  0  0  0  0  0  0  0  0  0  0
    3.3315  -18.1228    8.6834 N   0  0  0  0  0  0  0  0  0  0  0  0
    3.8132  -18.1247    9.9379 N   0  0  0  0  0  0  0  0  0  0  0  0
    1.5822  -18.6133    9.8959 C   0  0  0  0  0  0  0  0  0  0  0  0
    2.7399  -18.4250   10.6743 C   0  0  0  0  0  0  0  0  0  0  0  0
    2.0004  -18.4096    8.6035 C   0  0  0  0  0  0  0  0  0  0  0  0
    2.8499  -18.5243   12.1071 C   0  0  0  0  0  0  0  0  0  0  0  0
    2.9241  -19.7774   12.7150 C   0  0  0  0  0  0  0  0  0  0  0  0
    2.8818  -17.3681   12.8866 C   0  0  0  0  0  0  0  0  0  0  0  0
    3.0302  -19.8745   14.1025 C   0  0  0  0  0  0  0  0  0  0  0  0
    2.9879  -17.4649   14.2740 C   0  0  0  0  0  0  0  0  0  0  0  0
    3.0621  -18.7182   14.8819 C   0  0  0  0  0  0  0  0  0  0  0  0
    0.2207  -18.9529   10.3451 C   0  0  0  0  0  0  0  0  0  0  0  0
   -0.0822  -20.3876   10.2295 N   0  0  0  0  0  0  0  0  0  0  0  0
   -1.0887  -20.6072    9.1956 C   0  0  0  0  0  0  0  0  0  0  0  0
   -0.5365  -20.9107   11.5141 C   0  0  0  0  0  0  0  0  0  0  0  0
    8.7874  -12.6120    5.6197 C   0  0  0  0  0  0  0  0  0  0  0  0
    8.8181  -13.8253    6.3073 C   0  0  0  0  0  0  0  0  0  0  0  0
    7.6131  -12.1955    4.9924 C   0  0  0  0  0  0  0  0  0  0  0  0
    6.4697  -12.9922    5.0527 C   0  0  0  0  0  0  0  0  0  0  0  0
    7.6746  -14.6220    6.3676 C   0  0  0  0  0  0  0  0  0  0  0  0
    6.5007  -14.2055    5.7404 C   0  0  0  0  0  0  0  0  0  0  0  0
   12.0642  -10.0099    5.2070 O   0  0  0  0  0  0  0  0  0  0  0  0
    9.9226  -11.7985    5.5445 N   0  0  0  0  0  0  0  0  0  0  0  0
    9.8165  -10.4136    6.0240 C   0  0  0  0  0  0  0  0  0  0  0  0
   10.9108  -12.0176    4.4826 C   0  0  0  0  0  0  0  0  0  0  0  0
   11.2054   -9.8698    6.3386 C   0  0  0  0  0  0  0  0  0  0  0  0
   12.2414  -11.3876    4.8788 C   0  0  0  0  0  0  0  0  0  0  0  0
   10.3167  -16.4151    6.0516 O   0  0  0  0  0  0  0  0  0  0  0  0
    9.9838  -14.2630    6.9428 N   0  0  0  0  0  0  0  0  0  0  0  0
   10.6423  -15.4883    6.7841 C   0  0  0  0  0  0  0  0  0  0  0  0
   10.3880  -13.5937    7.5947 H   0  0  0  0  0  0  0  0  0  0  0  0
   11.8582  -15.5725    7.6443 C   0  0  0  0  0  0  0  0  0  0  0  0
   12.2779  -16.7511    8.1149 C   0  0  0  0  0  0  0  0  0  0  0  0
    5.3326  -12.5682    4.4324 O   0  0  0  0  0  0  0  0  0  0  0  0
    5.3654  -12.4822    3.0094 C   0  0  0  0  0  0  0  0  0  0  0  0
 30 34  1  0
 30 35  1  0
 42 27  1  0
 42 43  1  0
 36 38  2  0
 31 32  1  0
 31 33  1  0
 31 24  1  0
 37 25  1  0
 37 38  1  0
 37 39  1  0
  1 29  1  0
  1  5  1  0
  1  2  1  0
  9 10  1  0
  9 13  1  0
  9  6  1  0
 21 20  1  0
 21 22  1  0
 21 23  1  0
 10 12  2  0
  3  5  2  0
  3  6  1  0
  4  5  1  0
  4  8  2  0
 32 34  1  0
 33 35  1  0
 24 25  2  0
 24 26  1  0
 25 28  1  0
 26 27  2  0
 27 29  1  0
 28 29  2  0
 11 20  1  0
 11 12  1  0
 11 13  2  0
 12 14  1  0
  6  7  2  0
 14 15  2  0
 14 16  1  0
 38 40  1  0
  7  8  1  0
 15 17  1  0
 16 18  2  0
 40 41  2  0
 17 19  2  0
 18 19  1  0
M  END
> <PUBCHEM_COMPOUND_CID>
121269225

> <PUBCHEM_CONFORMER_RMSD>
1.2

> <PUBCHEM_CONFORMER_DIVERSEORDER>
1
31
30
33
22
2
39
40
42
24
12
19
13
34
32
21
11
18
5
17
38
16
37
14
6
10
23
41
20
8
26
9
35
27
3
25
7
29
36
15
28
4

> <PUBCHEM_MMFF94_PARTIAL_CHARGES>
56
1 -0.56
10 -0.62
11 -0.62
12 0.37
13 0.37
14 0.1
15 0.28
16 0.28
17 0.12
18 -0.15
19 0.08
2 -0.36
20 -0.15
21 0.1
22 -0.18
23 0.45
24 0.23
25 -0.3
26 0.72
27 0.29
28 0.05
29 0.62
3 -0.57
30 0.27
31 0.27
32 -0.15
33 0.28
34 -0.15
35 -0.15
36 0.16
37 -0.14
38 -0.15
39 -0.15
4 -0.84
40 -0.15
41 -0.3
5 -0.55
50 0.15
51 0.15
52 0.37
53 0.4
56 0.15
6 -0.6
63 0.15
67 0.15
68 0.15
69 0.15
7 0.59
70 0.15
71 0.15
72 0.15
73 0.15
74 0.15
75 0.15
8 -0.81
9 -0.71

> <PUBCHEM_EFFECTIVE_ROTOR_COUNT>
12.2

> <PUBCHEM_PHARMACOPHORE_FEATURES>
15
1 1 acceptor
1 2 acceptor
1 3 acceptor
1 4 cation
1 41 hydrophobe
1 5 donor
1 6 donor
1 8 cation
1 9 acceptor
4 6 10 11 26 cation
5 7 9 22 24 25 rings
6 1 4 12 13 15 16 rings
6 10 11 26 27 32 36 rings
6 14 17 18 19 20 21 rings
6 28 34 35 38 39 40 rings

> <PUBCHEM_HEAVY_ATOM_COUNT>
41

> <PUBCHEM_ATOM_DEF_STEREO_COUNT>
0

> <PUBCHEM_ATOM_UDEF_STEREO_COUNT>
0

> <PUBCHEM_BOND_DEF_STEREO_COUNT>
0

> <PUBCHEM_BOND_UDEF_STEREO_COUNT>
0

> <PUBCHEM_ISOTOPIC_ATOM_COUNT>
0

> <PUBCHEM_COMPONENT_COUNT>
1

> <PUBCHEM_CACTVS_TAUTO_COUNT>
21

> <PUBCHEM_CONFORMER_ID>
073A6BE900000001

> <PUBCHEM_MMFF94_ENERGY>
152.827

> <PUBCHEM_FEATURE_SELFOVERLAP>
76.123

> <PUBCHEM_SHAPE_FINGERPRINT>
10462674 296 18055900229362274326
117089 54 18263092144354338331
11963148 33 18115585942575997050
12107698 1 18337393841724322403
12559416 138 18339348712874340727
13560911 23 18408602557088241267
14279260 333 18187357693993441490
14394314 77 18337110056029612200
15001296 14 18265896865773273624
15021287 119 18341047531706515807
15064986 96 18059864904782135415
15444296 121 18408895039955283246
16110190 28 18341895182268168492
19311894 1 18339911736691467118
19319366 153 17760935438911142901
19611394 137 18261683687065550115
19841028 212 18117559742109845515
208703 8 18336543905992583145
21033648 29 17631719491893857602
25019877 29 17275108357344291455
25222932 49 18408041814642871966
3383291 50 18337952393284008379
4461854 278 18130515235522043406
44880168 125 17560794378212456590
9896288 288 18270402668086312625

> <PUBCHEM_SHAPE_MULTIPOLES>
786.3
19.57
6.26
1.77
11.23
3.91
0.4
-14.21
5.68
-4.91
-0.06
-0.46
-1.67
-2

> <PUBCHEM_SHAPE_SELFOVERLAP>
1697.64

> <PUBCHEM_SHAPE_VOLUME>
430.8

> <PUBCHEM_COORDINATE_TYPE>
2
5
10

> <minimizedAffinity>
-6.19495

> <CNNscore>
0.1957919151

> <CNNaffinity>
5.9400658607

> <CNN_VS>
1.1630169153

> <CNNaffinity_variance>
0.1593013704

$$$$
121269225


 43 47  0  0  0  0  0  0  0  0999 V2000
   16.9953   -3.7073   11.5341 N   0  0  0  0  0  0  0  0  0  0  0  0
   16.3268   -3.8582   10.7847 H   0  0  0  0  0  0  0  0  0  0  0  0
   17.9439   -1.7945   10.5712 N   0  0  0  0  0  0  0  0  0  0  0  0
   17.1492   -1.7728   12.8462 N   0  0  0  0  0  0  0  0  0  0  0  0
   17.3813   -2.3596   11.6564 C   0  0  0  0  0  0  0  0  0  0  0  0
   18.3022   -0.5027   10.7232 C   0  0  0  0  0  0  0  0  0  0  0  0
   18.1186    0.2118   11.8897 C   0  0  0  0  0  0  0  0  0  0  0  0
   17.5316   -0.4816   12.9284 C   0  0  0  0  0  0  0  0  0  0  0  0
   18.8870    0.1408    9.6436 N   0  0  0  0  0  0  0  0  0  0  0  0
   19.5116   -0.5656    8.6860 N   0  0  0  0  0  0  0  0  0  0  0  0
   19.5818    1.6764    8.2544 C   0  0  0  0  0  0  0  0  0  0  0  0
   19.9340    0.3780    7.8401 C   0  0  0  0  0  0  0  0  0  0  0  0
   18.9009    1.4882    9.4324 C   0  0  0  0  0  0  0  0  0  0  0  0
   20.6654    0.0121    6.6543 C   0  0  0  0  0  0  0  0  0  0  0  0
   22.0593   -0.0314    6.6812 C   0  0  0  0  0  0  0  0  0  0  0  0
   19.9806   -0.2981    5.4795 C   0  0  0  0  0  0  0  0  0  0  0  0
   22.7684   -0.3852    5.5331 C   0  0  0  0  0  0  0  0  0  0  0  0
   20.6893   -0.6519    4.3316 C   0  0  0  0  0  0  0  0  0  0  0  0
   22.0834   -0.6954    4.3584 C   0  0  0  0  0  0  0  0  0  0  0  0
   19.8690    2.9601    7.5906 C   0  0  0  0  0  0  0  0  0  0  0  0
   20.6482    3.8812    8.4320 N   0  0  0  0  0  0  0  0  0  0  0  0
   19.7533    4.7674    9.1695 C   0  0  0  0  0  0  0  0  0  0  0  0
   21.5765    4.6502    7.6092 C   0  0  0  0  0  0  0  0  0  0  0  0
   17.6773   -7.0885   13.9337 C   0  0  0  0  0  0  0  0  0  0  0  0
   16.6376   -6.2100   14.2386 C   0  0  0  0  0  0  0  0  0  0  0  0
   18.4945   -6.8454   12.8296 C   0  0  0  0  0  0  0  0  0  0  0  0
   18.2720   -5.7239   12.0306 C   0  0  0  0  0  0  0  0  0  0  0  0
   16.4151   -5.0884   13.4396 C   0  0  0  0  0  0  0  0  0  0  0  0
   17.2321   -4.8455   12.3357 C   0  0  0  0  0  0  0  0  0  0  0  0
   18.1595  -10.4369   16.4305 O   0  0  0  0  0  0  0  0  0  0  0  0
   17.9170   -8.2203   14.7197 N   0  0  0  0  0  0  0  0  0  0  0  0
   16.9970   -9.3592   14.5949 C   0  0  0  0  0  0  0  0  0  0  0  0
   18.5601   -8.0778   16.0305 C   0  0  0  0  0  0  0  0  0  0  0  0
   17.6753  -10.6270   15.1012 C   0  0  0  0  0  0  0  0  0  0  0  0
   19.1546   -9.4142   16.4609 C   0  0  0  0  0  0  0  0  0  0  0  0
   13.6979   -6.8109   14.3641 O   0  0  0  0  0  0  0  0  0  0  0  0
   15.8057   -6.4339   15.3396 N   0  0  0  0  0  0  0  0  0  0  0  0
   14.4335   -6.7116   15.3391 C   0  0  0  0  0  0  0  0  0  0  0  0
   16.2749   -6.3870   16.2418 H   0  0  0  0  0  0  0  0  0  0  0  0
   13.9093   -6.8875   16.7246 C   0  0  0  0  0  0  0  0  0  0  0  0
   14.4460   -6.2119   17.7455 C   0  0  0  0  0  0  0  0  0  0  0  0
   19.0807   -5.5046   10.9557 O   0  0  0  0  0  0  0  0  0  0  0  0
   18.9990   -6.4402    9.8828 C   0  0  0  0  0  0  0  0  0  0  0  0
 30 34  1  0
 30 35  1  0
 42 27  1  0
 42 43  1  0
 36 38  2  0
 31 32  1  0
 31 33  1  0
 31 24  1  0
 37 25  1  0
 37 38  1  0
 37 39  1  0
  1 29  1  0
  1  5  1  0
  1  2  1  0
  9 10  1  0
  9 13  1  0
  9  6  1  0
 21 20  1  0
 21 22  1  0
 21 23  1  0
 10 12  2  0
  3  5  2  0
  3  6  1  0
  4  5  1  0
  4  8  2  0
 32 34  1  0
 33 35  1  0
 24 25  2  0
 24 26  1  0
 25 28  1  0
 26 27  2  0
 27 29  1  0
 28 29  2  0
 11 20  1  0
 11 12  1  0
 11 13  2  0
 12 14  1  0
  6  7  2  0
 14 15  2  0
 14 16  1  0
 38 40  1  0
  7  8  1  0
 15 17  1  0
 16 18  2  0
 40 41  2  0
 17 19  2  0
 18 19  1  0
M  END
> <PUBCHEM_COMPOUND_CID>
121269225

> <PUBCHEM_CONFORMER_RMSD>
1.2

> <PUBCHEM_CONFORMER_DIVERSEORDER>
1
31
30
33
22
2
39
40
42
24
12
19
13
34
32
21
11
18
5
17
38
16
37
14
6
10
23
41
20
8
26
9
35
27
3
25
7
29
36
15
28
4

> <PUBCHEM_MMFF94_PARTIAL_CHARGES>
56
1 -0.56
10 -0.62
11 -0.62
12 0.37
13 0.37
14 0.1
15 0.28
16 0.28
17 0.12
18 -0.15
19 0.08
2 -0.36
20 -0.15
21 0.1
22 -0.18
23 0.45
24 0.23
25 -0.3
26 0.72
27 0.29
28 0.05
29 0.62
3 -0.57
30 0.27
31 0.27
32 -0.15
33 0.28
34 -0.15
35 -0.15
36 0.16
37 -0.14
38 -0.15
39 -0.15
4 -0.84
40 -0.15
41 -0.3
5 -0.55
50 0.15
51 0.15
52 0.37
53 0.4
56 0.15
6 -0.6
63 0.15
67 0.15
68 0.15
69 0.15
7 0.59
70 0.15
71 0.15
72 0.15
73 0.15
74 0.15
75 0.15
8 -0.81
9 -0.71

> <PUBCHEM_EFFECTIVE_ROTOR_COUNT>
12.2

> <PUBCHEM_PHARMACOPHORE_FEATURES>
15
1 1 acceptor
1 2 acceptor
1 3 acceptor
1 4 cation
1 41 hydrophobe
1 5 donor
1 6 donor
1 8 cation
1 9 acceptor
4 6 10 11 26 cation
5 7 9 22 24 25 rings
6 1 4 12 13 15 16 rings
6 10 11 26 27 32 36 rings
6 14 17 18 19 20 21 rings
6 28 34 35 38 39 40 rings

> <PUBCHEM_HEAVY_ATOM_COUNT>
41

> <PUBCHEM_ATOM_DEF_STEREO_COUNT>
0

> <PUBCHEM_ATOM_UDEF_STEREO_COUNT>
0

> <PUBCHEM_BOND_DEF_STEREO_COUNT>
0

> <PUBCHEM_BOND_UDEF_STEREO_COUNT>
0

> <PUBCHEM_ISOTOPIC_ATOM_COUNT>
0

> <PUBCHEM_COMPONENT_COUNT>
1

> <PUBCHEM_CACTVS_TAUTO_COUNT>
21

> <PUBCHEM_CONFORMER_ID>
073A6BE900000001

> <PUBCHEM_MMFF94_ENERGY>
152.827

> <PUBCHEM_FEATURE_SELFOVERLAP>
76.123

> <PUBCHEM_SHAPE_FINGERPRINT>
10462674 296 18055900229362274326
117089 54 18263092144354338331
11963148 33 18115585942575997050
12107698 1 18337393841724322403
12559416 138 18339348712874340727
13560911 23 18408602557088241267
14279260 333 18187357693993441490
14394314 77 18337110056029612200
15001296 14 18265896865773273624
15021287 119 18341047531706515807
15064986 96 18059864904782135415
15444296 121 18408895039955283246
16110190 28 18341895182268168492
19311894 1 18339911736691467118
19319366 153 17760935438911142901
19611394 137 18261683687065550115
19841028 212 18117559742109845515
208703 8 18336543905992583145
21033648 29 17631719491893857602
25019877 29 17275108357344291455
25222932 49 18408041814642871966
3383291 50 18337952393284008379
4461854 278 18130515235522043406
44880168 125 17560794378212456590
9896288 288 18270402668086312625

> <PUBCHEM_SHAPE_MULTIPOLES>
786.3
19.57
6.26
1.77
11.23
3.91
0.4
-14.21
5.68
-4.91
-0.06
-0.46
-1.67
-2

> <PUBCHEM_SHAPE_SELFOVERLAP>
1697.64

> <PUBCHEM_SHAPE_VOLUME>
430.8

> <PUBCHEM_COORDINATE_TYPE>
2
5
10

> <minimizedAffinity>
-6.58887

> <CNNscore>
0.1594530195

> <CNNaffinity>
5.1825499535

> <CNN_VS>
0.8263732195

> <CNNaffinity_variance>
1.8619917631

$$$$
121269225


 43 47  0  0  0  0  0  0  0  0999 V2000
    8.0162   -0.8265  -11.1472 N   0  0  0  0  0  0  0  0  0  0  0  0
    8.1492   -1.7487  -11.5514 H   0  0  0  0  0  0  0  0  0  0  0  0
    6.2367   -1.5077   -9.7851 N   0  0  0  0  0  0  0  0  0  0  0  0
    6.0494    0.4454  -11.1843 N   0  0  0  0  0  0  0  0  0  0  0  0
    6.7040   -0.6194  -10.6830 C   0  0  0  0  0  0  0  0  0  0  0  0
    4.9761   -1.2797   -9.3619 C   0  0  0  0  0  0  0  0  0  0  0  0
    4.2000   -0.2250   -9.7976 C   0  0  0  0  0  0  0  0  0  0  0  0
    4.7947    0.6137  -10.7181 C   0  0  0  0  0  0  0  0  0  0  0  0
    4.4330   -2.1568   -8.4359 N   0  0  0  0  0  0  0  0  0  0  0  0
    3.1580   -2.5657   -8.5508 N   0  0  0  0  0  0  0  0  0  0  0  0
    4.1733   -3.4895   -6.7250 C   0  0  0  0  0  0  0  0  0  0  0  0
    3.0051   -3.3797   -7.5027 C   0  0  0  0  0  0  0  0  0  0  0  0
    5.0852   -2.6811   -7.3588 C   0  0  0  0  0  0  0  0  0  0  0  0
    1.7423   -4.0330   -7.2719 C   0  0  0  0  0  0  0  0  0  0  0  0
    0.5832   -3.2732   -7.1152 C   0  0  0  0  0  0  0  0  0  0  0  0
    1.6782   -5.4246   -7.2047 C   0  0  0  0  0  0  0  0  0  0  0  0
   -0.6402   -3.9051   -6.8912 C   0  0  0  0  0  0  0  0  0  0  0  0
    0.4552   -6.0567   -6.9807 C   0  0  0  0  0  0  0  0  0  0  0  0
   -0.7041   -5.2968   -6.8239 C   0  0  0  0  0  0  0  0  0  0  0  0
    4.3903   -4.2849   -5.5039 C   0  0  0  0  0  0  0  0  0  0  0  0
    5.4352   -5.3080   -5.6618 N   0  0  0  0  0  0  0  0  0  0  0  0
    6.7459   -4.7376   -5.3672 C   0  0  0  0  0  0  0  0  0  0  0  0
    5.4011   -5.8570   -7.0137 C   0  0  0  0  0  0  0  0  0  0  0  0
   11.5425    1.4310  -10.7940 C   0  0  0  0  0  0  0  0  0  0  0  0
   10.6403    1.6956  -11.8244 C   0  0  0  0  0  0  0  0  0  0  0  0
   11.2754    0.4140   -9.8773 C   0  0  0  0  0  0  0  0  0  0  0  0
   10.1062   -0.3382   -9.9912 C   0  0  0  0  0  0  0  0  0  0  0  0
    9.4711    0.9434  -11.9382 C   0  0  0  0  0  0  0  0  0  0  0  0
    9.2041   -0.0734  -11.0217 C   0  0  0  0  0  0  0  0  0  0  0  0
   14.9955    3.8224  -10.6033 O   0  0  0  0  0  0  0  0  0  0  0  0
   12.7198    2.1741  -10.6596 N   0  0  0  0  0  0  0  0  0  0  0  0
   12.6098    3.5782  -10.2408 C   0  0  0  0  0  0  0  0  0  0  0  0
   13.8818    1.8619  -11.4988 C   0  0  0  0  0  0  0  0  0  0  0  0
   13.9413    4.0506   -9.6683 C   0  0  0  0  0  0  0  0  0  0  0  0
   15.1457    2.4265  -10.8598 C   0  0  0  0  0  0  0  0  0  0  0  0
   11.6695    1.5434  -14.6415 O   0  0  0  0  0  0  0  0  0  0  0  0
   10.8870    2.7102  -12.7540 N   0  0  0  0  0  0  0  0  0  0  0  0
   11.3698    2.5806  -14.0617 C   0  0  0  0  0  0  0  0  0  0  0  0
   10.6822    3.6498  -12.4201 H   0  0  0  0  0  0  0  0  0  0  0  0
   11.4964    3.9066  -14.7333 C   0  0  0  0  0  0  0  0  0  0  0  0
   12.2774    4.8595  -14.2148 C   0  0  0  0  0  0  0  0  0  0  0  0
    9.8630   -1.3268   -9.0849 O   0  0  0  0  0  0  0  0  0  0  0  0
   10.4380   -2.6042   -9.3507 C   0  0  0  0  0  0  0  0  0  0  0  0
 30 34  1  0
 30 35  1  0
 42 27  1  0
 42 43  1  0
 36 38  2  0
 31 32  1  0
 31 33  1  0
 31 24  1  0
 37 25  1  0
 37 38  1  0
 37 39  1  0
  1 29  1  0
  1  5  1  0
  1  2  1  0
  9 10  1  0
  9 13  1  0
  9  6  1  0
 21 20  1  0
 21 22  1  0
 21 23  1  0
 10 12  2  0
  3  5  2  0
  3  6  1  0
  4  5  1  0
  4  8  2  0
 32 34  1  0
 33 35  1  0
 24 25  2  0
 24 26  1  0
 25 28  1  0
 26 27  2  0
 27 29  1  0
 28 29  2  0
 11 20  1  0
 11 12  1  0
 11 13  2  0
 12 14  1  0
  6  7  2  0
 14 15  2  0
 14 16  1  0
 38 40  1  0
  7  8  1  0
 15 17  1  0
 16 18  2  0
 40 41  2  0
 17 19  2  0
 18 19  1  0
M  END
> <PUBCHEM_COMPOUND_CID>
121269225

> <PUBCHEM_CONFORMER_RMSD>
1.2

> <PUBCHEM_CONFORMER_DIVERSEORDER>
1
31
30
33
22
2
39
40
42
24
12
19
13
34
32
21
11
18
5
17
38
16
37
14
6
10
23
41
20
8
26
9
35
27
3
25
7
29
36
15
28
4

> <PUBCHEM_MMFF94_PARTIAL_CHARGES>
56
1 -0.56
10 -0.62
11 -0.62
12 0.37
13 0.37
14 0.1
15 0.28
16 0.28
17 0.12
18 -0.15
19 0.08
2 -0.36
20 -0.15
21 0.1
22 -0.18
23 0.45
24 0.23
25 -0.3
26 0.72
27 0.29
28 0.05
29 0.62
3 -0.57
30 0.27
31 0.27
32 -0.15
33 0.28
34 -0.15
35 -0.15
36 0.16
37 -0.14
38 -0.15
39 -0.15
4 -0.84
40 -0.15
41 -0.3
5 -0.55
50 0.15
51 0.15
52 0.37
53 0.4
56 0.15
6 -0.6
63 0.15
67 0.15
68 0.15
69 0.15
7 0.59
70 0.15
71 0.15
72 0.15
73 0.15
74 0.15
75 0.15
8 -0.81
9 -0.71

> <PUBCHEM_EFFECTIVE_ROTOR_COUNT>
12.2

> <PUBCHEM_PHARMACOPHORE_FEATURES>
15
1 1 acceptor
1 2 acceptor
1 3 acceptor
1 4 cation
1 41 hydrophobe
1 5 donor
1 6 donor
1 8 cation
1 9 acceptor
4 6 10 11 26 cation
5 7 9 22 24 25 rings
6 1 4 12 13 15 16 rings
6 10 11 26 27 32 36 rings
6 14 17 18 19 20 21 rings
6 28 34 35 38 39 40 rings

> <PUBCHEM_HEAVY_ATOM_COUNT>
41

> <PUBCHEM_ATOM_DEF_STEREO_COUNT>
0

> <PUBCHEM_ATOM_UDEF_STEREO_COUNT>
0

> <PUBCHEM_BOND_DEF_STEREO_COUNT>
0

> <PUBCHEM_BOND_UDEF_STEREO_COUNT>
0

> <PUBCHEM_ISOTOPIC_ATOM_COUNT>
0

> <PUBCHEM_COMPONENT_COUNT>
1

> <PUBCHEM_CACTVS_TAUTO_COUNT>
21

> <PUBCHEM_CONFORMER_ID>
073A6BE900000001

> <PUBCHEM_MMFF94_ENERGY>
152.827

> <PUBCHEM_FEATURE_SELFOVERLAP>
76.123

> <PUBCHEM_SHAPE_FINGERPRINT>
10462674 296 18055900229362274326
117089 54 18263092144354338331
11963148 33 18115585942575997050
12107698 1 18337393841724322403
12559416 138 18339348712874340727
13560911 23 18408602557088241267
14279260 333 18187357693993441490
14394314 77 18337110056029612200
15001296 14 18265896865773273624
15021287 119 18341047531706515807
15064986 96 18059864904782135415
15444296 121 18408895039955283246
16110190 28 18341895182268168492
19311894 1 18339911736691467118
19319366 153 17760935438911142901
19611394 137 18261683687065550115
19841028 212 18117559742109845515
208703 8 18336543905992583145
21033648 29 17631719491893857602
25019877 29 17275108357344291455
25222932 49 18408041814642871966
3383291 50 18337952393284008379
4461854 278 18130515235522043406
44880168 125 17560794378212456590
9896288 288 18270402668086312625

> <PUBCHEM_SHAPE_MULTIPOLES>
786.3
19.57
6.26
1.77
11.23
3.91
0.4
-14.21
5.68
-4.91
-0.06
-0.46
-1.67
-2

> <PUBCHEM_SHAPE_SELFOVERLAP>
1697.64

> <PUBCHEM_SHAPE_VOLUME>
430.8

> <PUBCHEM_COORDINATE_TYPE>
2
5
10

> <minimizedAffinity>
-8.30546

> <CNNscore>
0.1199309006

> <CNNaffinity>
6.7810482979

> <CNN_VS>
0.8132572174

> <CNNaffinity_variance>
0.4079942703

$$$$
121269225


 43 47  0  0  0  0  0  0  0  0999 V2000
   -2.7357   20.4548    7.6063 N   0  0  0  0  0  0  0  0  0  0  0  0
   -3.3786   21.1873    7.3209 H   0  0  0  0  0  0  0  0  0  0  0  0
   -4.3780   18.7884    7.7151 N   0  0  0  0  0  0  0  0  0  0  0  0
   -2.8968   19.1918    9.5727 N   0  0  0  0  0  0  0  0  0  0  0  0
   -3.3672   19.4286    8.3332 C   0  0  0  0  0  0  0  0  0  0  0  0
   -4.9610   17.8114    8.4402 C   0  0  0  0  0  0  0  0  0  0  0  0
   -4.5730   17.4709    9.7201 C   0  0  0  0  0  0  0  0  0  0  0  0
   -3.5250   18.2023   10.2408 C   0  0  0  0  0  0  0  0  0  0  0  0
   -6.0089   17.1111    7.8629 N   0  0  0  0  0  0  0  0  0  0  0  0
   -5.7815   16.2551    6.8521 N   0  0  0  0  0  0  0  0  0  0  0  0
   -7.9985   16.3404    7.3958 C   0  0  0  0  0  0  0  0  0  0  0  0
   -7.0008   15.7874    6.5709 C   0  0  0  0  0  0  0  0  0  0  0  0
   -7.3205   17.1989    8.2265 C   0  0  0  0  0  0  0  0  0  0  0  0
   -7.1802   14.8211    5.5179 C   0  0  0  0  0  0  0  0  0  0  0  0
   -7.4463   13.4887    5.8330 C   0  0  0  0  0  0  0  0  0  0  0  0
   -7.0874   15.2170    4.1838 C   0  0  0  0  0  0  0  0  0  0  0  0
   -7.6198   12.5521    4.8138 C   0  0  0  0  0  0  0  0  0  0  0  0
   -7.2608   14.2808    3.1646 C   0  0  0  0  0  0  0  0  0  0  0  0
   -7.5270   12.9482    3.4797 C   0  0  0  0  0  0  0  0  0  0  0  0
   -9.4475   16.0735    7.3867 C   0  0  0  0  0  0  0  0  0  0  0  0
   -9.8534   15.0672    8.3798 N   0  0  0  0  0  0  0  0  0  0  0  0
  -10.5768   13.9803    7.7274 C   0  0  0  0  0  0  0  0  0  0  0  0
  -10.6733   15.6861    9.4165 C   0  0  0  0  0  0  0  0  0  0  0  0
    1.1273   20.8250    5.9950 C   0  0  0  0  0  0  0  0  0  0  0  0
    0.2647   19.8330    5.5286 C   0  0  0  0  0  0  0  0  0  0  0  0
    0.7084   21.6975    6.9996 C   0  0  0  0  0  0  0  0  0  0  0  0
   -0.5730   21.5778    7.5377 C   0  0  0  0  0  0  0  0  0  0  0  0
   -1.0167   19.7133    6.0667 C   0  0  0  0  0  0  0  0  0  0  0  0
   -1.4355   20.5857    7.0711 C   0  0  0  0  0  0  0  0  0  0  0  0
    5.0643   21.3986    4.6351 O   0  0  0  0  0  0  0  0  0  0  0  0
    2.4155   20.9646    5.4684 N   0  0  0  0  0  0  0  0  0  0  0  0
    3.5339   20.3537    6.1999 C   0  0  0  0  0  0  0  0  0  0  0  0
    2.7594   22.1540    4.6816 C   0  0  0  0  0  0  0  0  0  0  0  0
    4.7200   20.1630    5.2615 C   0  0  0  0  0  0  0  0  0  0  0  0
    3.9874   21.8678    3.8245 C   0  0  0  0  0  0  0  0  0  0  0  0
    1.8067   17.2617    5.6987 O   0  0  0  0  0  0  0  0  0  0  0  0
    0.6629   18.9481    4.5222 N   0  0  0  0  0  0  0  0  0  0  0  0
    1.3847   17.7565    4.6601 C   0  0  0  0  0  0  0  0  0  0  0  0
    0.3820   19.2209    3.5825 H   0  0  0  0  0  0  0  0  0  0  0  0
    1.6109   17.0969    3.3413 C   0  0  0  0  0  0  0  0  0  0  0  0
    2.1932   15.8956    3.2728 C   0  0  0  0  0  0  0  0  0  0  0  0
   -0.9638   22.4406    8.5178 O   0  0  0  0  0  0  0  0  0  0  0  0
   -1.3358   23.7558    8.1115 C   0  0  0  0  0  0  0  0  0  0  0  0
 30 34  1  0
 30 35  1  0
 42 27  1  0
 42 43  1  0
 36 38  2  0
 31 32  1  0
 31 33  1  0
 31 24  1  0
 37 25  1  0
 37 38  1  0
 37 39  1  0
  1 29  1  0
  1  5  1  0
  1  2  1  0
  9 10  1  0
  9 13  1  0
  9  6  1  0
 21 20  1  0
 21 22  1  0
 21 23  1  0
 10 12  2  0
  3  5  2  0
  3  6  1  0
  4  5  1  0
  4  8  2  0
 32 34  1  0
 33 35  1  0
 24 25  2  0
 24 26  1  0
 25 28  1  0
 26 27  2  0
 27 29  1  0
 28 29  2  0
 11 20  1  0
 11 12  1  0
 11 13  2  0
 12 14  1  0
  6  7  2  0
 14 15  2  0
 14 16  1  0
 38 40  1  0
  7  8  1  0
 15 17  1  0
 16 18  2  0
 40 41  2  0
 17 19  2  0
 18 19  1  0
M  END
> <PUBCHEM_COMPOUND_CID>
121269225

> <PUBCHEM_CONFORMER_RMSD>
1.2

> <PUBCHEM_CONFORMER_DIVERSEORDER>
1
31
30
33
22
2
39
40
42
24
12
19
13
34
32
21
11
18
5
17
38
16
37
14
6
10
23
41
20
8
26
9
35
27
3
25
7
29
36
15
28
4

> <PUBCHEM_MMFF94_PARTIAL_CHARGES>
56
1 -0.56
10 -0.62
11 -0.62
12 0.37
13 0.37
14 0.1
15 0.28
16 0.28
17 0.12
18 -0.15
19 0.08
2 -0.36
20 -0.15
21 0.1
22 -0.18
23 0.45
24 0.23
25 -0.3
26 0.72
27 0.29
28 0.05
29 0.62
3 -0.57
30 0.27
31 0.27
32 -0.15
33 0.28
34 -0.15
35 -0.15
36 0.16
37 -0.14
38 -0.15
39 -0.15
4 -0.84
40 -0.15
41 -0.3
5 -0.55
50 0.15
51 0.15
52 0.37
53 0.4
56 0.15
6 -0.6
63 0.15
67 0.15
68 0.15
69 0.15
7 0.59
70 0.15
71 0.15
72 0.15
73 0.15
74 0.15
75 0.15
8 -0.81
9 -0.71

> <PUBCHEM_EFFECTIVE_ROTOR_COUNT>
12.2

> <PUBCHEM_PHARMACOPHORE_FEATURES>
15
1 1 acceptor
1 2 acceptor
1 3 acceptor
1 4 cation
1 41 hydrophobe
1 5 donor
1 6 donor
1 8 cation
1 9 acceptor
4 6 10 11 26 cation
5 7 9 22 24 25 rings
6 1 4 12 13 15 16 rings
6 10 11 26 27 32 36 rings
6 14 17 18 19 20 21 rings
6 28 34 35 38 39 40 rings

> <PUBCHEM_HEAVY_ATOM_COUNT>
41

> <PUBCHEM_ATOM_DEF_STEREO_COUNT>
0

> <PUBCHEM_ATOM_UDEF_STEREO_COUNT>
0

> <PUBCHEM_BOND_DEF_STEREO_COUNT>
0

> <PUBCHEM_BOND_UDEF_STEREO_COUNT>
0

> <PUBCHEM_ISOTOPIC_ATOM_COUNT>
0

> <PUBCHEM_COMPONENT_COUNT>
1

> <PUBCHEM_CACTVS_TAUTO_COUNT>
21

> <PUBCHEM_CONFORMER_ID>
073A6BE900000001

> <PUBCHEM_MMFF94_ENERGY>
152.827

> <PUBCHEM_FEATURE_SELFOVERLAP>
76.123

> <PUBCHEM_SHAPE_FINGERPRINT>
10462674 296 18055900229362274326
117089 54 18263092144354338331
11963148 33 18115585942575997050
12107698 1 18337393841724322403
12559416 138 18339348712874340727
13560911 23 18408602557088241267
14279260 333 18187357693993441490
14394314 77 18337110056029612200
15001296 14 18265896865773273624
15021287 119 18341047531706515807
15064986 96 18059864904782135415
15444296 121 18408895039955283246
16110190 28 18341895182268168492
19311894 1 18339911736691467118
19319366 153 17760935438911142901
19611394 137 18261683687065550115
19841028 212 18117559742109845515
208703 8 18336543905992583145
21033648 29 17631719491893857602
25019877 29 17275108357344291455
25222932 49 18408041814642871966
3383291 50 18337952393284008379
4461854 278 18130515235522043406
44880168 125 17560794378212456590
9896288 288 18270402668086312625

> <PUBCHEM_SHAPE_MULTIPOLES>
786.3
19.57
6.26
1.77
11.23
3.91
0.4
-14.21
5.68
-4.91
-0.06
-0.46
-1.67
-2

> <PUBCHEM_SHAPE_SELFOVERLAP>
1697.64

> <PUBCHEM_SHAPE_VOLUME>
430.8

> <PUBCHEM_COORDINATE_TYPE>
2
5
10

> <minimizedAffinity>
-6.30289

> <CNNscore>
0.1037075967

> <CNNaffinity>
4.9382915497

> <CNN_VS>
0.5121383667

> <CNNaffinity_variance>
0.6961024404

$$$$
121269225


 43 47  0  0  0  0  0  0  0  0999 V2000
   -4.9356  -11.6130   -3.5474 N   0  0  0  0  0  0  0  0  0  0  0  0
   -5.6011  -10.9024   -3.2584 H   0  0  0  0  0  0  0  0  0  0  0  0
   -4.7834  -13.3543   -5.1064 N   0  0  0  0  0  0  0  0  0  0  0  0
   -5.7935  -11.2473   -5.6963 N   0  0  0  0  0  0  0  0  0  0  0  0
   -5.1830  -12.0949   -4.8462 C   0  0  0  0  0  0  0  0  0  0  0  0
   -5.0354  -13.7838   -6.3603 C   0  0  0  0  0  0  0  0  0  0  0  0
   -5.6541  -13.0144   -7.3246 C   0  0  0  0  0  0  0  0  0  0  0  0
   -6.0147  -11.7415   -6.9321 C   0  0  0  0  0  0  0  0  0  0  0  0
   -4.6500  -15.0726   -6.6954 N   0  0  0  0  0  0  0  0  0  0  0  0
   -5.2083  -16.1314   -6.0842 N   0  0  0  0  0  0  0  0  0  0  0  0
   -3.6550  -16.7781   -7.6293 C   0  0  0  0  0  0  0  0  0  0  0  0
   -4.5963  -17.1705   -6.6589 C   0  0  0  0  0  0  0  0  0  0  0  0
   -3.7135  -15.4057   -7.6293 C   0  0  0  0  0  0  0  0  0  0  0  0
   -4.9289  -18.5152   -6.2639 C   0  0  0  0  0  0  0  0  0  0  0  0
   -4.3191  -19.0838   -5.1458 C   0  0  0  0  0  0  0  0  0  0  0  0
   -5.8598  -19.2488   -6.9992 C   0  0  0  0  0  0  0  0  0  0  0  0
   -4.6403  -20.3862   -4.7628 C   0  0  0  0  0  0  0  0  0  0  0  0
   -6.1810  -20.5509   -6.6165 C   0  0  0  0  0  0  0  0  0  0  0  0
   -5.5712  -21.1197   -5.4982 C   0  0  0  0  0  0  0  0  0  0  0  0
   -2.7917  -17.6296   -8.4661 C   0  0  0  0  0  0  0  0  0  0  0  0
   -3.4526  -18.0831   -9.6994 N   0  0  0  0  0  0  0  0  0  0  0  0
   -2.8865  -19.3562  -10.1342 C   0  0  0  0  0  0  0  0  0  0  0  0
   -3.3169  -17.0724  -10.7435 C   0  0  0  0  0  0  0  0  0  0  0  0
   -1.7482  -12.1721   -0.8671 C   0  0  0  0  0  0  0  0  0  0  0  0
   -1.6568  -11.2128   -1.8757 C   0  0  0  0  0  0  0  0  0  0  0  0
   -2.9002  -12.9495   -0.7466 C   0  0  0  0  0  0  0  0  0  0  0  0
   -3.9605  -12.7676   -1.6345 C   0  0  0  0  0  0  0  0  0  0  0  0
   -2.7171  -11.0309   -2.7636 C   0  0  0  0  0  0  0  0  0  0  0  0
   -3.8688  -11.8081   -2.6430 C   0  0  0  0  0  0  0  0  0  0  0  0
    1.5661  -12.6037    1.6839 O   0  0  0  0  0  0  0  0  0  0  0  0
   -0.6982  -12.3699    0.0354 N   0  0  0  0  0  0  0  0  0  0  0  0
   -0.2126  -11.2122    0.7991 C   0  0  0  0  0  0  0  0  0  0  0  0
    0.3017  -13.4118   -0.2225 C   0  0  0  0  0  0  0  0  0  0  0  0
    0.5295  -11.6900    2.0421 C   0  0  0  0  0  0  0  0  0  0  0  0
    1.0172  -13.7719    1.0748 C   0  0  0  0  0  0  0  0  0  0  0  0
    0.8211  -11.6501   -3.5149 O   0  0  0  0  0  0  0  0  0  0  0  0
   -0.5124  -10.4219   -2.0150 N   0  0  0  0  0  0  0  0  0  0  0  0
    0.6196  -10.6767   -2.7983 C   0  0  0  0  0  0  0  0  0  0  0  0
   -0.5250   -9.5594   -1.4744 H   0  0  0  0  0  0  0  0  0  0  0  0
    1.6285   -9.5847   -2.6752 C   0  0  0  0  0  0  0  0  0  0  0  0
    1.8357   -8.9795   -1.5015 C   0  0  0  0  0  0  0  0  0  0  0  0
   -5.0778  -13.5364   -1.4994 O   0  0  0  0  0  0  0  0  0  0  0  0
   -4.8920  -14.8724   -1.0369 C   0  0  0  0  0  0  0  0  0  0  0  0
 30 34  1  0
 30 35  1  0
 42 27  1  0
 42 43  1  0
 36 38  2  0
 31 32  1  0
 31 33  1  0
 31 24  1  0
 37 25  1  0
 37 38  1  0
 37 39  1  0
  1 29  1  0
  1  5  1  0
  1  2  1  0
  9 10  1  0
  9 13  1  0
  9  6  1  0
 21 20  1  0
 21 22  1  0
 21 23  1  0
 10 12  2  0
  3  5  2  0
  3  6  1  0
  4  5  1  0
  4  8  2  0
 32 34  1  0
 33 35  1  0
 24 25  2  0
 24 26  1  0
 25 28  1  0
 26 27  2  0
 27 29  1  0
 28 29  2  0
 11 20  1  0
 11 12  1  0
 11 13  2  0
 12 14  1  0
  6  7  2  0
 14 15  2  0
 14 16  1  0
 38 40  1  0
  7  8  1  0
 15 17  1  0
 16 18  2  0
 40 41  2  0
 17 19  2  0
 18 19  1  0
M  END
> <PUBCHEM_COMPOUND_CID>
121269225

> <PUBCHEM_CONFORMER_RMSD>
1.2

> <PUBCHEM_CONFORMER_DIVERSEORDER>
1
31
30
33
22
2
39
40
42
24
12
19
13
34
32
21
11
18
5
17
38
16
37
14
6
10
23
41
20
8
26
9
35
27
3
25
7
29
36
15
28
4

> <PUBCHEM_MMFF94_PARTIAL_CHARGES>
56
1 -0.56
10 -0.62
11 -0.62
12 0.37
13 0.37
14 0.1
15 0.28
16 0.28
17 0.12
18 -0.15
19 0.08
2 -0.36
20 -0.15
21 0.1
22 -0.18
23 0.45
24 0.23
25 -0.3
26 0.72
27 0.29
28 0.05
29 0.62
3 -0.57
30 0.27
31 0.27
32 -0.15
33 0.28
34 -0.15
35 -0.15
36 0.16
37 -0.14
38 -0.15
39 -0.15
4 -0.84
40 -0.15
41 -0.3
5 -0.55
50 0.15
51 0.15
52 0.37
53 0.4
56 0.15
6 -0.6
63 0.15
67 0.15
68 0.15
69 0.15
7 0.59
70 0.15
71 0.15
72 0.15
73 0.15
74 0.15
75 0.15
8 -0.81
9 -0.71

> <PUBCHEM_EFFECTIVE_ROTOR_COUNT>
12.2

> <PUBCHEM_PHARMACOPHORE_FEATURES>
15
1 1 acceptor
1 2 acceptor
1 3 acceptor
1 4 cation
1 41 hydrophobe
1 5 donor
1 6 donor
1 8 cation
1 9 acceptor
4 6 10 11 26 cation
5 7 9 22 24 25 rings
6 1 4 12 13 15 16 rings
6 10 11 26 27 32 36 rings
6 14 17 18 19 20 21 rings
6 28 34 35 38 39 40 rings

> <PUBCHEM_HEAVY_ATOM_COUNT>
41

> <PUBCHEM_ATOM_DEF_STEREO_COUNT>
0

> <PUBCHEM_ATOM_UDEF_STEREO_COUNT>
0

> <PUBCHEM_BOND_DEF_STEREO_COUNT>
0

> <PUBCHEM_BOND_UDEF_STEREO_COUNT>
0

> <PUBCHEM_ISOTOPIC_ATOM_COUNT>
0

> <PUBCHEM_COMPONENT_COUNT>
1

> <PUBCHEM_CACTVS_TAUTO_COUNT>
21

> <PUBCHEM_CONFORMER_ID>
073A6BE900000001

> <PUBCHEM_MMFF94_ENERGY>
152.827

> <PUBCHEM_FEATURE_SELFOVERLAP>
76.123

> <PUBCHEM_SHAPE_FINGERPRINT>
10462674 296 18055900229362274326
117089 54 18263092144354338331
11963148 33 18115585942575997050
12107698 1 18337393841724322403
12559416 138 18339348712874340727
13560911 23 18408602557088241267
14279260 333 18187357693993441490
14394314 77 18337110056029612200
15001296 14 18265896865773273624
15021287 119 18341047531706515807
15064986 96 18059864904782135415
15444296 121 18408895039955283246
16110190 28 18341895182268168492
19311894 1 18339911736691467118
19319366 153 17760935438911142901
19611394 137 18261683687065550115
19841028 212 18117559742109845515
208703 8 18336543905992583145
21033648 29 17631719491893857602
25019877 29 17275108357344291455
25222932 49 18408041814642871966
3383291 50 18337952393284008379
4461854 278 18130515235522043406
44880168 125 17560794378212456590
9896288 288 18270402668086312625

> <PUBCHEM_SHAPE_MULTIPOLES>
786.3
19.57
6.26
1.77
11.23
3.91
0.4
-14.21
5.68
-4.91
-0.06
-0.46
-1.67
-2

> <PUBCHEM_SHAPE_SELFOVERLAP>
1697.64

> <PUBCHEM_SHAPE_VOLUME>
430.8

> <PUBCHEM_COORDINATE_TYPE>
2
5
10

> <minimizedAffinity>
-8.54749

> <CNNscore>
0.0945170596

> <CNNaffinity>
5.3727607727

> <CNN_VS>
0.5078175664

> <CNNaffinity_variance>
2.0529348850

$$$$
121269225


 43 47  0  0  0  0  0  0  0  0999 V2000
  -17.1109   -7.7727   -3.8266 N   0  0  0  0  0  0  0  0  0  0  0  0
  -17.8806   -7.2305   -3.4457 H   0  0  0  0  0  0  0  0  0  0  0  0
  -16.1749   -8.7321   -1.9059 N   0  0  0  0  0  0  0  0  0  0  0  0
  -14.9502   -7.1143   -3.2060 N   0  0  0  0  0  0  0  0  0  0  0  0
  -16.0261   -7.8782   -2.9365 C   0  0  0  0  0  0  0  0  0  0  0  0
  -15.1167   -8.8082   -1.0723 C   0  0  0  0  0  0  0  0  0  0  0  0
  -13.9565   -8.0793   -1.2376 C   0  0  0  0  0  0  0  0  0  0  0  0
  -13.9295   -7.2402   -2.3328 C   0  0  0  0  0  0  0  0  0  0  0  0
  -15.2031   -9.6696    0.0104 N   0  0  0  0  0  0  0  0  0  0  0  0
  -15.8442   -9.2943    1.1303 N   0  0  0  0  0  0  0  0  0  0  0  0
  -15.0011  -11.4091    1.3157 C   0  0  0  0  0  0  0  0  0  0  0  0
  -15.7174  -10.3611    1.9242 C   0  0  0  0  0  0  0  0  0  0  0  0
  -14.6798  -10.9277    0.0700 C   0  0  0  0  0  0  0  0  0  0  0  0
  -16.2863  -10.3502    3.2474 C   0  0  0  0  0  0  0  0  0  0  0  0
  -16.9762  -11.4672    3.7183 C   0  0  0  0  0  0  0  0  0  0  0  0
  -16.1479   -9.2234    4.0576 C   0  0  0  0  0  0  0  0  0  0  0  0
  -17.5278  -11.4574    4.9996 C   0  0  0  0  0  0  0  0  0  0  0  0
  -16.6993   -9.2134    5.3387 C   0  0  0  0  0  0  0  0  0  0  0  0
  -17.3894  -10.3305    5.8097 C   0  0  0  0  0  0  0  0  0  0  0  0
  -14.6610  -12.7307    1.8713 C   0  0  0  0  0  0  0  0  0  0  0  0
  -15.3307  -13.8382    1.1725 N   0  0  0  0  0  0  0  0  0  0  0  0
  -14.4929  -14.3232    0.0802 C   0  0  0  0  0  0  0  0  0  0  0  0
  -16.6320  -13.4045    0.6738 C   0  0  0  0  0  0  0  0  0  0  0  0
  -17.9429   -9.6036   -7.5160 C   0  0  0  0  0  0  0  0  0  0  0  0
  -17.0776   -8.5112   -7.4541 C   0  0  0  0  0  0  0  0  0  0  0  0
  -18.5352  -10.0908   -6.3508 C   0  0  0  0  0  0  0  0  0  0  0  0
  -18.2622   -9.4857   -5.1239 C   0  0  0  0  0  0  0  0  0  0  0  0
  -16.8046   -7.9061   -6.2273 C   0  0  0  0  0  0  0  0  0  0  0  0
  -17.3968   -8.3934   -5.0624 C   0  0  0  0  0  0  0  0  0  0  0  0
  -18.9993  -11.6254  -11.0479 O   0  0  0  0  0  0  0  0  0  0  0  0
  -18.2291  -10.2270   -8.7348 N   0  0  0  0  0  0  0  0  0  0  0  0
  -19.5437   -9.9859   -9.3455 C   0  0  0  0  0  0  0  0  0  0  0  0
  -17.6202  -11.5228   -9.0546 C   0  0  0  0  0  0  0  0  0  0  0  0
  -19.4844  -10.2997  -10.8361 C   0  0  0  0  0  0  0  0  0  0  0  0
  -17.6641  -11.7552  -10.5608 C   0  0  0  0  0  0  0  0  0  0  0  0
  -17.8441   -6.1864   -9.1937 O   0  0  0  0  0  0  0  0  0  0  0  0
  -16.4723   -8.0064   -8.6087 N   0  0  0  0  0  0  0  0  0  0  0  0
  -16.8756   -6.9126   -9.3840 C   0  0  0  0  0  0  0  0  0  0  0  0
  -15.6371   -8.5083   -8.9034 H   0  0  0  0  0  0  0  0  0  0  0  0
  -15.9605   -6.6941  -10.5417 C   0  0  0  0  0  0  0  0  0  0  0  0
  -15.3371   -5.5229  -10.7040 C   0  0  0  0  0  0  0  0  0  0  0  0
  -18.8499   -9.9774   -3.9968 O   0  0  0  0  0  0  0  0  0  0  0  0
  -20.2661   -9.8454   -3.8951 C   0  0  0  0  0  0  0  0  0  0  0  0
 30 34  1  0
 30 35  1  0
 42 27  1  0
 42 43  1  0
 36 38  2  0
 31 32  1  0
 31 33  1  0
 31 24  1  0
 37 25  1  0
 37 38  1  0
 37 39  1  0
  1 29  1  0
  1  5  1  0
  1  2  1  0
  9 10  1  0
  9 13  1  0
  9  6  1  0
 21 20  1  0
 21 22  1  0
 21 23  1  0
 10 12  2  0
  3  5  2  0
  3  6  1  0
  4  5  1  0
  4  8  2  0
 32 34  1  0
 33 35  1  0
 24 25  2  0
 24 26  1  0
 25 28  1  0
 26 27  2  0
 27 29  1  0
 28 29  2  0
 11 20  1  0
 11 12  1  0
 11 13  2  0
 12 14  1  0
  6  7  2  0
 14 15  2  0
 14 16  1  0
 38 40  1  0
  7  8  1  0
 15 17  1  0
 16 18  2  0
 40 41  2  0
 17 19  2  0
 18 19  1  0
M  END
> <PUBCHEM_COMPOUND_CID>
121269225

> <PUBCHEM_CONFORMER_RMSD>
1.2

> <PUBCHEM_CONFORMER_DIVERSEORDER>
1
31
30
33
22
2
39
40
42
24
12
19
13
34
32
21
11
18
5
17
38
16
37
14
6
10
23
41
20
8
26
9
35
27
3
25
7
29
36
15
28
4

> <PUBCHEM_MMFF94_PARTIAL_CHARGES>
56
1 -0.56
10 -0.62
11 -0.62
12 0.37
13 0.37
14 0.1
15 0.28
16 0.28
17 0.12
18 -0.15
19 0.08
2 -0.36
20 -0.15
21 0.1
22 -0.18
23 0.45
24 0.23
25 -0.3
26 0.72
27 0.29
28 0.05
29 0.62
3 -0.57
30 0.27
31 0.27
32 -0.15
33 0.28
34 -0.15
35 -0.15
36 0.16
37 -0.14
38 -0.15
39 -0.15
4 -0.84
40 -0.15
41 -0.3
5 -0.55
50 0.15
51 0.15
52 0.37
53 0.4
56 0.15
6 -0.6
63 0.15
67 0.15
68 0.15
69 0.15
7 0.59
70 0.15
71 0.15
72 0.15
73 0.15
74 0.15
75 0.15
8 -0.81
9 -0.71

> <PUBCHEM_EFFECTIVE_ROTOR_COUNT>
12.2

> <PUBCHEM_PHARMACOPHORE_FEATURES>
15
1 1 acceptor
1 2 acceptor
1 3 acceptor
1 4 cation
1 41 hydrophobe
1 5 donor
1 6 donor
1 8 cation
1 9 acceptor
4 6 10 11 26 cation
5 7 9 22 24 25 rings
6 1 4 12 13 15 16 rings
6 10 11 26 27 32 36 rings
6 14 17 18 19 20 21 rings
6 28 34 35 38 39 40 rings

> <PUBCHEM_HEAVY_ATOM_COUNT>
41

> <PUBCHEM_ATOM_DEF_STEREO_COUNT>
0

> <PUBCHEM_ATOM_UDEF_STEREO_COUNT>
0

> <PUBCHEM_BOND_DEF_STEREO_COUNT>
0

> <PUBCHEM_BOND_UDEF_STEREO_COUNT>
0

> <PUBCHEM_ISOTOPIC_ATOM_COUNT>
0

> <PUBCHEM_COMPONENT_COUNT>
1

> <PUBCHEM_CACTVS_TAUTO_COUNT>
21

> <PUBCHEM_CONFORMER_ID>
073A6BE900000001

> <PUBCHEM_MMFF94_ENERGY>
152.827

> <PUBCHEM_FEATURE_SELFOVERLAP>
76.123

> <PUBCHEM_SHAPE_FINGERPRINT>
10462674 296 18055900229362274326
117089 54 18263092144354338331
11963148 33 18115585942575997050
12107698 1 18337393841724322403
12559416 138 18339348712874340727
13560911 23 18408602557088241267
14279260 333 18187357693993441490
14394314 77 18337110056029612200
15001296 14 18265896865773273624
15021287 119 18341047531706515807
15064986 96 18059864904782135415
15444296 121 18408895039955283246
16110190 28 18341895182268168492
19311894 1 18339911736691467118
19319366 153 17760935438911142901
19611394 137 18261683687065550115
19841028 212 18117559742109845515
208703 8 18336543905992583145
21033648 29 17631719491893857602
25019877 29 17275108357344291455
25222932 49 18408041814642871966
3383291 50 18337952393284008379
4461854 278 18130515235522043406
44880168 125 17560794378212456590
9896288 288 18270402668086312625

> <PUBCHEM_SHAPE_MULTIPOLES>
786.3
19.57
6.26
1.77
11.23
3.91
0.4
-14.21
5.68
-4.91
-0.06
-0.46
-1.67
-2

> <PUBCHEM_SHAPE_SELFOVERLAP>
1697.64

> <PUBCHEM_SHAPE_VOLUME>
430.8

> <PUBCHEM_COORDINATE_TYPE>
2
5
10

> <minimizedAffinity>
-6.35154

> <CNNscore>
0.0914360806

> <CNNaffinity>
5.2807459831

> <CNN_VS>
0.4828507304

> <CNNaffinity_variance>
0.9914712906

$$$$
121269225


 43 47  0  0  0  0  0  0  0  0999 V2000
   -7.0986  -19.6636   13.6360 N   0  0  0  0  0  0  0  0  0  0  0  0
   -6.6905  -19.5272   12.7161 H   0  0  0  0  0  0  0  0  0  0  0  0
   -4.9029  -19.4864   14.4317 N   0  0  0  0  0  0  0  0  0  0  0  0
   -6.5579  -20.7602   15.6342 N   0  0  0  0  0  0  0  0  0  0  0  0
   -6.1402  -19.9855   14.6148 C   0  0  0  0  0  0  0  0  0  0  0  0
   -4.0094  -19.8147   15.3878 C   0  0  0  0  0  0  0  0  0  0  0  0
   -4.3109  -20.6001   16.4818 C   0  0  0  0  0  0  0  0  0  0  0  0
   -5.6138  -21.0492   16.5536 C   0  0  0  0  0  0  0  0  0  0  0  0
   -2.7157  -19.3330   15.2611 N   0  0  0  0  0  0  0  0  0  0  0  0
   -2.0927  -19.3583   14.0706 N   0  0  0  0  0  0  0  0  0  0  0  0
   -0.7599  -18.4629   15.6954 C   0  0  0  0  0  0  0  0  0  0  0  0
   -0.8982  -18.8255   14.3422 C   0  0  0  0  0  0  0  0  0  0  0  0
   -1.9606  -18.8062   16.2674 C   0  0  0  0  0  0  0  0  0  0  0  0
    0.0823  -18.6767   13.2976 C   0  0  0  0  0  0  0  0  0  0  0  0
   -0.3285  -18.5125   11.9748 C   0  0  0  0  0  0  0  0  0  0  0  0
    1.4419  -18.6971   13.6082 C   0  0  0  0  0  0  0  0  0  0  0  0
    0.6205  -18.3687   10.9625 C   0  0  0  0  0  0  0  0  0  0  0  0
    2.3908  -18.5534   12.5962 C   0  0  0  0  0  0  0  0  0  0  0  0
    1.9801  -18.3892   11.2732 C   0  0  0  0  0  0  0  0  0  0  0  0
    0.4009  -17.8528   16.3670 C   0  0  0  0  0  0  0  0  0  0  0  0
    0.9951  -18.7234   17.3929 N   0  0  0  0  0  0  0  0  0  0  0  0
    1.9120  -19.6759   16.7744 C   0  0  0  0  0  0  0  0  0  0  0  0
   -0.0542  -19.4192   18.1312 C   0  0  0  0  0  0  0  0  0  0  0  0
  -11.1801  -18.6945   13.8779 C   0  0  0  0  0  0  0  0  0  0  0  0
  -10.2411  -17.9637   14.6059 C   0  0  0  0  0  0  0  0  0  0  0  0
  -10.7650  -19.7509   13.0670 C   0  0  0  0  0  0  0  0  0  0  0  0
   -9.4111  -20.0764   12.9841 C   0  0  0  0  0  0  0  0  0  0  0  0
   -8.8872  -18.2892   14.5230 C   0  0  0  0  0  0  0  0  0  0  0  0
   -8.4723  -19.3453   13.7122 C   0  0  0  0  0  0  0  0  0  0  0  0
  -15.3279  -18.0118   13.9661 O   0  0  0  0  0  0  0  0  0  0  0  0
  -12.5422  -18.3842   13.9442 N   0  0  0  0  0  0  0  0  0  0  0  0
  -13.3900  -19.1727   14.8490 C   0  0  0  0  0  0  0  0  0  0  0  0
  -13.2258  -17.8355   12.7679 C   0  0  0  0  0  0  0  0  0  0  0  0
  -14.6626  -18.3969   15.1689 C   0  0  0  0  0  0  0  0  0  0  0  0
  -14.5078  -17.1315   13.1985 C   0  0  0  0  0  0  0  0  0  0  0  0
  -10.4923  -17.8003   17.5939 O   0  0  0  0  0  0  0  0  0  0  0  0
  -10.6340  -16.9007   15.4244 N   0  0  0  0  0  0  0  0  0  0  0  0
  -10.7334  -16.8807   16.8207 C   0  0  0  0  0  0  0  0  0  0  0  0
  -10.8705  -16.0459   14.9246 H   0  0  0  0  0  0  0  0  0  0  0  0
  -11.1901  -15.5508   17.3189 C   0  0  0  0  0  0  0  0  0  0  0  0
  -12.0285  -14.8043   16.5933 C   0  0  0  0  0  0  0  0  0  0  0  0
   -9.0257  -21.1113   12.1853 O   0  0  0  0  0  0  0  0  0  0  0  0
  -10.0420  -22.0207   11.7689 C   0  0  0  0  0  0  0  0  0  0  0  0
 30 34  1  0
 30 35  1  0
 42 27  1  0
 42 43  1  0
 36 38  2  0
 31 32  1  0
 31 33  1  0
 31 24  1  0
 37 25  1  0
 37 38  1  0
 37 39  1  0
  1 29  1  0
  1  5  1  0
  1  2  1  0
  9 10  1  0
  9 13  1  0
  9  6  1  0
 21 20  1  0
 21 22  1  0
 21 23  1  0
 10 12  2  0
  3  5  2  0
  3  6  1  0
  4  5  1  0
  4  8  2  0
 32 34  1  0
 33 35  1  0
 24 25  2  0
 24 26  1  0
 25 28  1  0
 26 27  2  0
 27 29  1  0
 28 29  2  0
 11 20  1  0
 11 12  1  0
 11 13  2  0
 12 14  1  0
  6  7  2  0
 14 15  2  0
 14 16  1  0
 38 40  1  0
  7  8  1  0
 15 17  1  0
 16 18  2  0
 40 41  2  0
 17 19  2  0
 18 19  1  0
M  END
> <PUBCHEM_COMPOUND_CID>
121269225

> <PUBCHEM_CONFORMER_RMSD>
1.2

> <PUBCHEM_CONFORMER_DIVERSEORDER>
1
31
30
33
22
2
39
40
42
24
12
19
13
34
32
21
11
18
5
17
38
16
37
14
6
10
23
41
20
8
26
9
35
27
3
25
7
29
36
15
28
4

> <PUBCHEM_MMFF94_PARTIAL_CHARGES>
56
1 -0.56
10 -0.62
11 -0.62
12 0.37
13 0.37
14 0.1
15 0.28
16 0.28
17 0.12
18 -0.15
19 0.08
2 -0.36
20 -0.15
21 0.1
22 -0.18
23 0.45
24 0.23
25 -0.3
26 0.72
27 0.29
28 0.05
29 0.62
3 -0.57
30 0.27
31 0.27
32 -0.15
33 0.28
34 -0.15
35 -0.15
36 0.16
37 -0.14
38 -0.15
39 -0.15
4 -0.84
40 -0.15
41 -0.3
5 -0.55
50 0.15
51 0.15
52 0.37
53 0.4
56 0.15
6 -0.6
63 0.15
67 0.15
68 0.15
69 0.15
7 0.59
70 0.15
71 0.15
72 0.15
73 0.15
74 0.15
75 0.15
8 -0.81
9 -0.71

> <PUBCHEM_EFFECTIVE_ROTOR_COUNT>
12.2

> <PUBCHEM_PHARMACOPHORE_FEATURES>
15
1 1 acceptor
1 2 acceptor
1 3 acceptor
1 4 cation
1 41 hydrophobe
1 5 donor
1 6 donor
1 8 cation
1 9 acceptor
4 6 10 11 26 cation
5 7 9 22 24 25 rings
6 1 4 12 13 15 16 rings
6 10 11 26 27 32 36 rings
6 14 17 18 19 20 21 rings
6 28 34 35 38 39 40 rings

> <PUBCHEM_HEAVY_ATOM_COUNT>
41

> <PUBCHEM_ATOM_DEF_STEREO_COUNT>
0

> <PUBCHEM_ATOM_UDEF_STEREO_COUNT>
0

> <PUBCHEM_BOND_DEF_STEREO_COUNT>
0

> <PUBCHEM_BOND_UDEF_STEREO_COUNT>
0

> <PUBCHEM_ISOTOPIC_ATOM_COUNT>
0

> <PUBCHEM_COMPONENT_COUNT>
1

> <PUBCHEM_CACTVS_TAUTO_COUNT>
21

> <PUBCHEM_CONFORMER_ID>
073A6BE900000001

> <PUBCHEM_MMFF94_ENERGY>
152.827

> <PUBCHEM_FEATURE_SELFOVERLAP>
76.123

> <PUBCHEM_SHAPE_FINGERPRINT>
10462674 296 18055900229362274326
117089 54 18263092144354338331
11963148 33 18115585942575997050
12107698 1 18337393841724322403
12559416 138 18339348712874340727
13560911 23 18408602557088241267
14279260 333 18187357693993441490
14394314 77 18337110056029612200
15001296 14 18265896865773273624
15021287 119 18341047531706515807
15064986 96 18059864904782135415
15444296 121 18408895039955283246
16110190 28 18341895182268168492
19311894 1 18339911736691467118
19319366 153 17760935438911142901
19611394 137 18261683687065550115
19841028 212 18117559742109845515
208703 8 18336543905992583145
21033648 29 17631719491893857602
25019877 29 17275108357344291455
25222932 49 18408041814642871966
3383291 50 18337952393284008379
4461854 278 18130515235522043406
44880168 125 17560794378212456590
9896288 288 18270402668086312625

> <PUBCHEM_SHAPE_MULTIPOLES>
786.3
19.57
6.26
1.77
11.23
3.91
0.4
-14.21
5.68
-4.91
-0.06
-0.46
-1.67
-2

> <PUBCHEM_SHAPE_SELFOVERLAP>
1697.64

> <PUBCHEM_SHAPE_VOLUME>
430.8

> <PUBCHEM_COORDINATE_TYPE>
2
5
10

> <minimizedAffinity>
-6.14315

> <CNNscore>
0.0862739980

> <CNNaffinity>
5.1596255302

> <CNN_VS>
0.4451415241

> <CNNaffinity_variance>
1.0362782478

$$$$
121269225


 43 47  0  0  0  0  0  0  0  0999 V2000
  -15.6568    3.2536    9.6976 N   0  0  0  0  0  0  0  0  0  0  0  0
  -15.3537    3.1507    8.7338 H   0  0  0  0  0  0  0  0  0  0  0  0
  -15.2763    1.9449   11.6024 N   0  0  0  0  0  0  0  0  0  0  0  0
  -16.4232    1.0401    9.6858 N   0  0  0  0  0  0  0  0  0  0  0  0
  -15.7922    2.0198   10.3607 C   0  0  0  0  0  0  0  0  0  0  0  0
  -15.4231    0.7485   12.2085 C   0  0  0  0  0  0  0  0  0  0  0  0
  -16.0497   -0.3344   11.6260 C   0  0  0  0  0  0  0  0  0  0  0  0
  -16.5351   -0.1285   10.3507 C   0  0  0  0  0  0  0  0  0  0  0  0
  -14.9150    0.6027   13.4900 N   0  0  0  0  0  0  0  0  0  0  0  0
  -14.1765   -0.4730   13.8119 N   0  0  0  0  0  0  0  0  0  0  0  0
  -14.4209    0.9389   15.5909 C   0  0  0  0  0  0  0  0  0  0  0  0
  -13.8776   -0.2621   15.0967 C   0  0  0  0  0  0  0  0  0  0  0  0
  -15.0910    1.4789   14.5203 C   0  0  0  0  0  0  0  0  0  0  0  0
  -13.0779   -1.2171   15.8200 C   0  0  0  0  0  0  0  0  0  0  0  0
  -13.6663   -2.3743   16.3299 C   0  0  0  0  0  0  0  0  0  0  0  0
  -11.7160   -0.9850   16.0110 C   0  0  0  0  0  0  0  0  0  0  0  0
  -12.8927   -3.2996   17.0309 C   0  0  0  0  0  0  0  0  0  0  0  0
  -10.9422   -1.9099   16.7119 C   0  0  0  0  0  0  0  0  0  0  0  0
  -11.5307   -3.0673   17.2219 C   0  0  0  0  0  0  0  0  0  0  0  0
  -14.3090    1.5065   16.9459 C   0  0  0  0  0  0  0  0  0  0  0  0
  -13.1862    2.4464   17.0851 N   0  0  0  0  0  0  0  0  0  0  0  0
  -12.4414    2.1623   18.3077 C   0  0  0  0  0  0  0  0  0  0  0  0
  -13.6779    3.8206   17.0856 C   0  0  0  0  0  0  0  0  0  0  0  0
  -15.7824    7.2320   11.0440 C   0  0  0  0  0  0  0  0  0  0  0  0
  -14.6237    6.4725   11.2067 C   0  0  0  0  0  0  0  0  0  0  0  0
  -16.9039    6.6708   10.4332 C   0  0  0  0  0  0  0  0  0  0  0  0
  -16.8668    5.3503    9.9852 C   0  0  0  0  0  0  0  0  0  0  0  0
  -14.5866    5.1520   10.7587 C   0  0  0  0  0  0  0  0  0  0  0  0
  -15.7079    4.5910   10.1480 C   0  0  0  0  0  0  0  0  0  0  0  0
  -15.6802   11.2214   12.3678 O   0  0  0  0  0  0  0  0  0  0  0  0
  -15.8412    8.5585   11.4835 N   0  0  0  0  0  0  0  0  0  0  0  0
  -15.3332    9.6085   10.5899 C   0  0  0  0  0  0  0  0  0  0  0  0
  -15.7485    8.8592   12.9164 C   0  0  0  0  0  0  0  0  0  0  0  0
  -15.9275   10.9548   10.9874 C   0  0  0  0  0  0  0  0  0  0  0  0
  -16.3200   10.2459   13.1900 C   0  0  0  0  0  0  0  0  0  0  0  0
  -12.1135    7.5887    9.9938 O   0  0  0  0  0  0  0  0  0  0  0  0
  -13.4877    7.0143   11.8153 N   0  0  0  0  0  0  0  0  0  0  0  0
  -12.3396    7.5229   11.1963 C   0  0  0  0  0  0  0  0  0  0  0  0
  -13.5206    7.0338   12.8326 H   0  0  0  0  0  0  0  0  0  0  0  0
  -11.3474    8.0107   12.1978 C   0  0  0  0  0  0  0  0  0  0  0  0
  -10.0937    7.5471   12.1944 C   0  0  0  0  0  0  0  0  0  0  0  0
  -17.9727    4.8207    9.3900 O   0  0  0  0  0  0  0  0  0  0  0  0
  -18.3065    5.3101    8.0930 C   0  0  0  0  0  0  0  0  0  0  0  0
 30 34  1  0
 30 35  1  0
 42 27  1  0
 42 43  1  0
 36 38  2  0
 31 32  1  0
 31 33  1  0
 31 24  1  0
 37 25  1  0
 37 38  1  0
 37 39  1  0
  1 29  1  0
  1  5  1  0
  1  2  1  0
  9 10  1  0
  9 13  1  0
  9  6  1  0
 21 20  1  0
 21 22  1  0
 21 23  1  0
 10 12  2  0
  3  5  2  0
  3  6  1  0
  4  5  1  0
  4  8  2  0
 32 34  1  0
 33 35  1  0
 24 25  2  0
 24 26  1  0
 25 28  1  0
 26 27  2  0
 27 29  1  0
 28 29  2  0
 11 20  1  0
 11 12  1  0
 11 13  2  0
 12 14  1  0
  6  7  2  0
 14 15  2  0
 14 16  1  0
 38 40  1  0
  7  8  1  0
 15 17  1  0
 16 18  2  0
 40 41  2  0
 17 19  2  0
 18 19  1  0
M  END
> <PUBCHEM_COMPOUND_CID>
121269225

> <PUBCHEM_CONFORMER_RMSD>
1.2

> <PUBCHEM_CONFORMER_DIVERSEORDER>
1
31
30
33
22
2
39
40
42
24
12
19
13
34
32
21
11
18
5
17
38
16
37
14
6
10
23
41
20
8
26
9
35
27
3
25
7
29
36
15
28
4

> <PUBCHEM_MMFF94_PARTIAL_CHARGES>
56
1 -0.56
10 -0.62
11 -0.62
12 0.37
13 0.37
14 0.1
15 0.28
16 0.28
17 0.12
18 -0.15
19 0.08
2 -0.36
20 -0.15
21 0.1
22 -0.18
23 0.45
24 0.23
25 -0.3
26 0.72
27 0.29
28 0.05
29 0.62
3 -0.57
30 0.27
31 0.27
32 -0.15
33 0.28
34 -0.15
35 -0.15
36 0.16
37 -0.14
38 -0.15
39 -0.15
4 -0.84
40 -0.15
41 -0.3
5 -0.55
50 0.15
51 0.15
52 0.37
53 0.4
56 0.15
6 -0.6
63 0.15
67 0.15
68 0.15
69 0.15
7 0.59
70 0.15
71 0.15
72 0.15
73 0.15
74 0.15
75 0.15
8 -0.81
9 -0.71

> <PUBCHEM_EFFECTIVE_ROTOR_COUNT>
12.2

> <PUBCHEM_PHARMACOPHORE_FEATURES>
15
1 1 acceptor
1 2 acceptor
1 3 acceptor
1 4 cation
1 41 hydrophobe
1 5 donor
1 6 donor
1 8 cation
1 9 acceptor
4 6 10 11 26 cation
5 7 9 22 24 25 rings
6 1 4 12 13 15 16 rings
6 10 11 26 27 32 36 rings
6 14 17 18 19 20 21 rings
6 28 34 35 38 39 40 rings

> <PUBCHEM_HEAVY_ATOM_COUNT>
41

> <PUBCHEM_ATOM_DEF_STEREO_COUNT>
0

> <PUBCHEM_ATOM_UDEF_STEREO_COUNT>
0

> <PUBCHEM_BOND_DEF_STEREO_COUNT>
0

> <PUBCHEM_BOND_UDEF_STEREO_COUNT>
0

> <PUBCHEM_ISOTOPIC_ATOM_COUNT>
0

> <PUBCHEM_COMPONENT_COUNT>
1

> <PUBCHEM_CACTVS_TAUTO_COUNT>
21

> <PUBCHEM_CONFORMER_ID>
073A6BE900000001

> <PUBCHEM_MMFF94_ENERGY>
152.827

> <PUBCHEM_FEATURE_SELFOVERLAP>
76.123

> <PUBCHEM_SHAPE_FINGERPRINT>
10462674 296 18055900229362274326
117089 54 18263092144354338331
11963148 33 18115585942575997050
12107698 1 18337393841724322403
12559416 138 18339348712874340727
13560911 23 18408602557088241267
14279260 333 18187357693993441490
14394314 77 18337110056029612200
15001296 14 18265896865773273624
15021287 119 18341047531706515807
15064986 96 18059864904782135415
15444296 121 18408895039955283246
16110190 28 18341895182268168492
19311894 1 18339911736691467118
19319366 153 17760935438911142901
19611394 137 18261683687065550115
19841028 212 18117559742109845515
208703 8 18336543905992583145
21033648 29 17631719491893857602
25019877 29 17275108357344291455
25222932 49 18408041814642871966
3383291 50 18337952393284008379
4461854 278 18130515235522043406
44880168 125 17560794378212456590
9896288 288 18270402668086312625

> <PUBCHEM_SHAPE_MULTIPOLES>
786.3
19.57
6.26
1.77
11.23
3.91
0.4
-14.21
5.68
-4.91
-0.06
-0.46
-1.67
-2

> <PUBCHEM_SHAPE_SELFOVERLAP>
1697.64

> <PUBCHEM_SHAPE_VOLUME>
430.8

> <PUBCHEM_COORDINATE_TYPE>
2
5
10

> <minimizedAffinity>
-7.42147

> <CNNscore>
0.0793683603

> <CNNaffinity>
4.6912703514

> <CNN_VS>
0.3723384440

> <CNNaffinity_variance>
2.0378601551

$$$$
