10184653


 36 39  0  0  0  0  0  0  0  0999 V2000
   -5.8902  -19.6937    8.3346 N   0  0  0  0  0  0  0  0  0  0  0  0
   -3.7173  -20.0796    9.3021 N   0  0  0  0  0  0  0  0  0  0  0  0
   -5.9581  -20.9608    4.8989 C   0  0  0  0  0  0  0  0  0  0  0  0
   -4.6669  -21.4578    4.7609 C   0  0  0  0  0  0  0  0  0  0  0  0
   -6.3575  -20.3712    6.1020 C   0  0  0  0  0  0  0  0  0  0  0  0
   -4.1868  -20.7698    7.0336 C   0  0  0  0  0  0  0  0  0  0  0  0
   -5.4884  -20.2641    7.1852 C   0  0  0  0  0  0  0  0  0  0  0  0
   -3.7777  -21.3641    5.8270 C   0  0  0  0  0  0  0  0  0  0  0  0
   -3.3477  -20.6446    8.1372 C   0  0  0  0  0  0  0  0  0  0  0  0
   -4.9832  -19.6329    9.3307 C   0  0  0  0  0  0  0  0  0  0  0  0
   -4.6998  -24.3347    3.9028 O   0  0  0  0  0  0  0  0  0  0  0  0
   -4.2518  -22.0496    3.5660 N   0  0  0  0  0  0  0  0  0  0  0  0
   -4.2903  -23.4057    3.2167 C   0  0  0  0  0  0  0  0  0  0  0  0
   -3.8788  -21.3981    2.8783 H   0  0  0  0  0  0  0  0  0  0  0  0
   -3.7519  -23.6351    1.8427 C   0  0  0  0  0  0  0  0  0  0  0  0
   -4.5401  -24.1267    0.8762 C   0  0  0  0  0  0  0  0  0  0  0  0
   -4.0661  -24.3721   -0.5252 C   0  0  0  0  0  0  0  0  0  0  0  0
   -4.9175  -25.3336   -1.2182 N   0  0  0  0  0  0  0  0  0  0  0  0
   -4.2017  -25.9377   -2.3427 C   0  0  0  0  0  0  0  0  0  0  0  0
   -5.3804  -26.3701   -0.2943 C   0  0  0  0  0  0  0  0  0  0  0  0
   -2.0192  -21.1313    8.0592 N   0  0  0  0  0  0  0  0  0  0  0  0
   -1.9478  -22.1187    8.2895 H   0  0  0  0  0  0  0  0  0  0  0  0
    1.7736  -19.1768    5.2244 Cl  0  0  0  0  0  0  0  0  0  0  0  0
    2.8893  -18.5792    7.9054 F   0  0  0  0  0  0  0  0  0  0  0  0
   -0.7741  -20.4841    8.0157 C   0  0  0  0  0  0  0  0  0  0  0  0
   -0.1851  -20.1858    6.7868 C   0  0  0  0  0  0  0  0  0  0  0  0
   -0.1259  -20.1395    9.2017 C   0  0  0  0  0  0  0  0  0  0  0  0
    1.0518  -19.5426    6.7439 C   0  0  0  0  0  0  0  0  0  0  0  0
    1.1113  -19.4965    9.1588 C   0  0  0  0  0  0  0  0  0  0  0  0
    1.7001  -19.1980    7.9300 C   0  0  0  0  0  0  0  0  0  0  0  0
   -6.8520  -21.0374    3.8725 O   0  0  0  0  0  0  0  0  0  0  0  0
   -9.3609  -21.6764    2.2906 O   0  0  0  0  0  0  0  0  0  0  0  0
   -8.2244  -20.8403    4.1949 C   0  0  0  0  0  0  0  0  0  0  0  0
   -8.7762  -19.6734    3.4131 C   0  0  0  0  0  0  0  0  0  0  0  0
   -9.0306  -22.0020    3.6519 C   0  0  0  0  0  0  0  0  0  0  0  0
   -9.0446  -20.2973    2.0581 C   0  0  0  0  0  0  0  0  0  0  0  0
 23 28  1  0
 24 30  1  0
 32 35  1  0
 32 36  1  0
 31 33  1  0
 31  3  1  0
 11 13  2  0
 12  4  1  0
 12 13  1  0
 12 14  1  0
  1  7  2  0
  1 10  1  0
 21  9  1  0
 21 25  1  0
 21 22  1  0
  2  9  1  0
  2 10  2  0
 18 17  1  0
 18 19  1  0
 18 20  1  0
 33 34  1  0
 33 35  1  0
 34 36  1  0
  3  4  1  0
  3  5  2  0
  4  8  2  0
  5  7  1  0
  6  7  1  0
  6  8  1  0
  6  9  2  0
 13 15  1  0
 25 26  2  0
 25 27  1  0
 15 16  2  0
 17 16  1  0
 26 28  1  0
 27 29  2  0
 28 30  2  0
 29 30  1  0
M  END
> <PUBCHEM_COMPOUND_CID>
10184653

> <PUBCHEM_CONFORMER_RMSD>
1

> <PUBCHEM_CONFORMER_DIVERSEORDER>
1
55
19
37
62
57
35
28
53
34
56
41
17
51
59
61
43
13
31
50
33
32
60
25
54
27
8
16
20
12
38
65
9
48
40
7
21
44
18
47
10
29
58
4
45
6
15
11
22
63
30
39
52
23
36
26
46
49
64
14
24
42
3
5
2

> <PUBCHEM_MMFF94_PARTIAL_CHARGES>
42
1 -0.18
10 -0.81
11 0.28
13 0.28
14 0.28
15 0.08
16 0.12
17 -0.15
19 0.31
2 -0.19
20 -0.15
21 0.41
22 0.62
23 0.47
24 0.1
25 -0.14
26 0.41
27 -0.29
28 -0.15
29 -0.15
3 -0.56
30 0.18
31 -0.15
32 0.27
33 0.27
34 0.19
4 -0.36
42 0.15
43 0.15
44 0.37
45 0.4
46 0.15
47 0.15
5 -0.57
50 0.15
51 0.15
52 0.15
53 0.15
6 -0.55
7 -0.62
8 -0.6
9 -0.62

> <PUBCHEM_EFFECTIVE_ROTOR_COUNT>
10

> <PUBCHEM_PHARMACOPHORE_FEATURES>
12
1 10 cation
1 3 acceptor
1 4 acceptor
1 5 acceptor
1 6 donor
1 8 donor
3 7 9 23 cation
3 8 9 21 cation
5 3 11 12 13 14 rings
6 15 16 17 18 19 20 rings
6 24 28 29 30 31 34 rings
6 7 9 18 19 21 23 rings

> <PUBCHEM_HEAVY_ATOM_COUNT>
34

> <PUBCHEM_ATOM_DEF_STEREO_COUNT>
1

> <PUBCHEM_ATOM_UDEF_STEREO_COUNT>
0

> <PUBCHEM_BOND_DEF_STEREO_COUNT>
1

> <PUBCHEM_BOND_UDEF_STEREO_COUNT>
0

> <PUBCHEM_ISOTOPIC_ATOM_COUNT>
0

> <PUBCHEM_COMPONENT_COUNT>
1

> <PUBCHEM_CACTVS_TAUTO_COUNT>
6

> <PUBCHEM_CONFORMER_ID>
009B67CD00000001

> <PUBCHEM_MMFF94_ENERGY>
118.3863

> <PUBCHEM_FEATURE_SELFOVERLAP>
61.069

> <PUBCHEM_SHAPE_FINGERPRINT>
10050765 1 18409731725397260590
102385 1 18338237050937012855
10581848 127 18267048157042201945
10675989 125 17765712421274760985
10816530 23 18120663422938000737
10939801 23 17974850889678323372
12107183 9 18190160323388426594
12741549 16 17460587263948438879
12788726 201 18115875276836333234
12925494 130 18339077065050983644
13140716 1 17687186800226601262
13383665 225 18190204393246121460
13540713 4 18271814480219722286
14028597 1 17603577578055265275
14068700 686 18341337759526122742
14190465 44 18336823074577052925
14294032 229 18338254728900680980
14394314 77 17618513515589478757
14395042 24 18187930642324558101
14790565 3 18049448033442953445
15400415 2 17976265634705014989
15439362 3 18123748656634030244
19309040 13 18059285444874715076
19427546 62 18049165458685693621
20238998 120 18194403527617411343
23845131 108 18193558857484026109
24771293 8 18127703836151030955
27425 322 17908984301971085317
469060 322 18266194995910524210
550186 72 18265899249300781597
57527585 21 18269534161279665167
6004065 56 17976261562775526063
653340 110 18410019840245178567
9555976 147 18191279677237576986
9777508 108 18337114441401685095
9849439 229 18338796689486291428
9896288 288 18408602587053135962
9961470 85 18268707200098131368

> <PUBCHEM_SHAPE_MULTIPOLES>
651.79
16.98
9.14
1.35
16.63
7.82
0.79
16.53
7.63
-22.03
1.12
1.11
0.38
1.78

> <PUBCHEM_SHAPE_SELFOVERLAP>
1393.544

> <PUBCHEM_SHAPE_VOLUME>
363.9

> <PUBCHEM_COORDINATE_TYPE>
2
5
10

> <minimizedAffinity>
-5.00691

> <CNNscore>
0.7587764263

> <CNNaffinity>
6.8904719353

> <CNN_VS>
5.2283277512

> <CNNaffinity_variance>
0.2782815695

$$$$
10184653


 36 39  0  0  0  0  0  0  0  0999 V2000
   -3.1589  -23.8716    3.9219 N   0  0  0  0  0  0  0  0  0  0  0  0
   -1.5564  -22.9971    5.4948 N   0  0  0  0  0  0  0  0  0  0  0  0
   -6.2471  -21.9089    4.0807 C   0  0  0  0  0  0  0  0  0  0  0  0
   -5.9308  -20.9727    5.0588 C   0  0  0  0  0  0  0  0  0  0  0  0
   -5.3096  -22.8766    3.7073 C   0  0  0  0  0  0  0  0  0  0  0  0
   -3.7399  -21.9826    5.2807 C   0  0  0  0  0  0  0  0  0  0  0  0
   -4.0476  -22.9335    4.2939 C   0  0  0  0  0  0  0  0  0  0  0  0
   -4.6772  -21.0064    5.6616 C   0  0  0  0  0  0  0  0  0  0  0  0
   -2.4699  -22.0714    5.8436 C   0  0  0  0  0  0  0  0  0  0  0  0
   -1.9616  -23.8522    4.5421 C   0  0  0  0  0  0  0  0  0  0  0  0
   -8.0150  -21.0188    7.2193 O   0  0  0  0  0  0  0  0  0  0  0  0
   -6.8556  -19.9996    5.4437 N   0  0  0  0  0  0  0  0  0  0  0  0
   -7.8111  -20.0746    6.4655 C   0  0  0  0  0  0  0  0  0  0  0  0
   -6.8134  -19.1382    4.9027 H   0  0  0  0  0  0  0  0  0  0  0  0
   -8.6134  -18.8186    6.5613 C   0  0  0  0  0  0  0  0  0  0  0  0
   -9.8116  -18.8207    7.1626 C   0  0  0  0  0  0  0  0  0  0  0  0
  -10.6635  -17.5944    7.3010 C   0  0  0  0  0  0  0  0  0  0  0  0
  -10.3513  -16.8601    8.5229 N   0  0  0  0  0  0  0  0  0  0  0  0
  -10.9920  -15.5444    8.5103 C   0  0  0  0  0  0  0  0  0  0  0  0
  -10.7726  -17.6197    9.7010 C   0  0  0  0  0  0  0  0  0  0  0  0
   -2.0876  -21.1462    6.8463 N   0  0  0  0  0  0  0  0  0  0  0  0
   -2.8838  -20.7049    7.2985 H   0  0  0  0  0  0  0  0  0  0  0  0
    2.1180  -18.7950    5.1069 Cl  0  0  0  0  0  0  0  0  0  0  0  0
    2.7155  -18.6536    8.0073 F   0  0  0  0  0  0  0  0  0  0  0  0
   -0.8684  -20.5134    7.1364 C   0  0  0  0  0  0  0  0  0  0  0  0
   -0.0718  -20.0249    6.1007 C   0  0  0  0  0  0  0  0  0  0  0  0
   -0.4537  -20.3733    8.4608 C   0  0  0  0  0  0  0  0  0  0  0  0
    1.1394  -19.3961    6.3893 C   0  0  0  0  0  0  0  0  0  0  0  0
    0.7577  -19.7446    8.7494 C   0  0  0  0  0  0  0  0  0  0  0  0
    1.5542  -19.2560    7.7137 C   0  0  0  0  0  0  0  0  0  0  0  0
   -7.4670  -21.9022    3.4723 O   0  0  0  0  0  0  0  0  0  0  0  0
   -9.5142  -21.5708    1.2577 O   0  0  0  0  0  0  0  0  0  0  0  0
   -7.5544  -22.5204    2.1931 C   0  0  0  0  0  0  0  0  0  0  0  0
   -8.6441  -23.5643    2.1974 C   0  0  0  0  0  0  0  0  0  0  0  0
   -8.0787  -21.5114    1.1923 C   0  0  0  0  0  0  0  0  0  0  0  0
   -9.8921  -22.7216    2.0251 C   0  0  0  0  0  0  0  0  0  0  0  0
 23 28  1  0
 24 30  1  0
 32 35  1  0
 32 36  1  0
 31 33  1  0
 31  3  1  0
 11 13  2  0
 12  4  1  0
 12 13  1  0
 12 14  1  0
  1  7  2  0
  1 10  1  0
 21  9  1  0
 21 25  1  0
 21 22  1  0
  2  9  1  0
  2 10  2  0
 18 17  1  0
 18 19  1  0
 18 20  1  0
 33 34  1  0
 33 35  1  0
 34 36  1  0
  3  4  1  0
  3  5  2  0
  4  8  2  0
  5  7  1  0
  6  7  1  0
  6  8  1  0
  6  9  2  0
 13 15  1  0
 25 26  2  0
 25 27  1  0
 15 16  2  0
 17 16  1  0
 26 28  1  0
 27 29  2  0
 28 30  2  0
 29 30  1  0
M  END
> <PUBCHEM_COMPOUND_CID>
10184653

> <PUBCHEM_CONFORMER_RMSD>
1

> <PUBCHEM_CONFORMER_DIVERSEORDER>
1
55
19
37
62
57
35
28
53
34
56
41
17
51
59
61
43
13
31
50
33
32
60
25
54
27
8
16
20
12
38
65
9
48
40
7
21
44
18
47
10
29
58
4
45
6
15
11
22
63
30
39
52
23
36
26
46
49
64
14
24
42
3
5
2

> <PUBCHEM_MMFF94_PARTIAL_CHARGES>
42
1 -0.18
10 -0.81
11 0.28
13 0.28
14 0.28
15 0.08
16 0.12
17 -0.15
19 0.31
2 -0.19
20 -0.15
21 0.41
22 0.62
23 0.47
24 0.1
25 -0.14
26 0.41
27 -0.29
28 -0.15
29 -0.15
3 -0.56
30 0.18
31 -0.15
32 0.27
33 0.27
34 0.19
4 -0.36
42 0.15
43 0.15
44 0.37
45 0.4
46 0.15
47 0.15
5 -0.57
50 0.15
51 0.15
52 0.15
53 0.15
6 -0.55
7 -0.62
8 -0.6
9 -0.62

> <PUBCHEM_EFFECTIVE_ROTOR_COUNT>
10

> <PUBCHEM_PHARMACOPHORE_FEATURES>
12
1 10 cation
1 3 acceptor
1 4 acceptor
1 5 acceptor
1 6 donor
1 8 donor
3 7 9 23 cation
3 8 9 21 cation
5 3 11 12 13 14 rings
6 15 16 17 18 19 20 rings
6 24 28 29 30 31 34 rings
6 7 9 18 19 21 23 rings

> <PUBCHEM_HEAVY_ATOM_COUNT>
34

> <PUBCHEM_ATOM_DEF_STEREO_COUNT>
1

> <PUBCHEM_ATOM_UDEF_STEREO_COUNT>
0

> <PUBCHEM_BOND_DEF_STEREO_COUNT>
1

> <PUBCHEM_BOND_UDEF_STEREO_COUNT>
0

> <PUBCHEM_ISOTOPIC_ATOM_COUNT>
0

> <PUBCHEM_COMPONENT_COUNT>
1

> <PUBCHEM_CACTVS_TAUTO_COUNT>
6

> <PUBCHEM_CONFORMER_ID>
009B67CD00000001

> <PUBCHEM_MMFF94_ENERGY>
118.3863

> <PUBCHEM_FEATURE_SELFOVERLAP>
61.069

> <PUBCHEM_SHAPE_FINGERPRINT>
10050765 1 18409731725397260590
102385 1 18338237050937012855
10581848 127 18267048157042201945
10675989 125 17765712421274760985
10816530 23 18120663422938000737
10939801 23 17974850889678323372
12107183 9 18190160323388426594
12741549 16 17460587263948438879
12788726 201 18115875276836333234
12925494 130 18339077065050983644
13140716 1 17687186800226601262
13383665 225 18190204393246121460
13540713 4 18271814480219722286
14028597 1 17603577578055265275
14068700 686 18341337759526122742
14190465 44 18336823074577052925
14294032 229 18338254728900680980
14394314 77 17618513515589478757
14395042 24 18187930642324558101
14790565 3 18049448033442953445
15400415 2 17976265634705014989
15439362 3 18123748656634030244
19309040 13 18059285444874715076
19427546 62 18049165458685693621
20238998 120 18194403527617411343
23845131 108 18193558857484026109
24771293 8 18127703836151030955
27425 322 17908984301971085317
469060 322 18266194995910524210
550186 72 18265899249300781597
57527585 21 18269534161279665167
6004065 56 17976261562775526063
653340 110 18410019840245178567
9555976 147 18191279677237576986
9777508 108 18337114441401685095
9849439 229 18338796689486291428
9896288 288 18408602587053135962
9961470 85 18268707200098131368

> <PUBCHEM_SHAPE_MULTIPOLES>
651.79
16.98
9.14
1.35
16.63
7.82
0.79
16.53
7.63
-22.03
1.12
1.11
0.38
1.78

> <PUBCHEM_SHAPE_SELFOVERLAP>
1393.544

> <PUBCHEM_SHAPE_VOLUME>
363.9

> <PUBCHEM_COORDINATE_TYPE>
2
5
10

> <minimizedAffinity>
-5.20232

> <CNNscore>
0.3269599080

> <CNNaffinity>
6.1454353333

> <CNN_VS>
2.0093109608

> <CNNaffinity_variance>
0.0144797871

$$$$
10184653


 36 39  0  0  0  0  0  0  0  0999 V2000
   -2.9257    2.1192    8.4012 N   0  0  0  0  0  0  0  0  0  0  0  0
   -4.3072    2.5270    6.4694 N   0  0  0  0  0  0  0  0  0  0  0  0
   -3.8150   -1.1014    9.9014 C   0  0  0  0  0  0  0  0  0  0  0  0
   -4.8311   -1.5306    9.0549 C   0  0  0  0  0  0  0  0  0  0  0  0
   -3.1830    0.1244    9.6725 C   0  0  0  0  0  0  0  0  0  0  0  0
   -4.5726    0.4989    7.7575 C   0  0  0  0  0  0  0  0  0  0  0  0
   -3.5449    0.9433    8.6055 C   0  0  0  0  0  0  0  0  0  0  0  0
   -5.2130   -0.7325    7.9810 C   0  0  0  0  0  0  0  0  0  0  0  0
   -4.9063    1.3440    6.7029 C   0  0  0  0  0  0  0  0  0  0  0  0
   -3.3401    2.8469    7.3441 C   0  0  0  0  0  0  0  0  0  0  0  0
   -7.6110   -2.4161    8.3467 O   0  0  0  0  0  0  0  0  0  0  0  0
   -5.4730   -2.7523    9.2694 N   0  0  0  0  0  0  0  0  0  0  0  0
   -6.7796   -3.1134    8.9158 C   0  0  0  0  0  0  0  0  0  0  0  0
   -4.9041   -3.4520    9.7418 H   0  0  0  0  0  0  0  0  0  0  0  0
   -7.0910   -4.5166    9.3212 C   0  0  0  0  0  0  0  0  0  0  0  0
   -6.7403   -4.9684   10.5336 C   0  0  0  0  0  0  0  0  0  0  0  0
   -7.0304   -6.3615   11.0068 C   0  0  0  0  0  0  0  0  0  0  0  0
   -6.4979   -6.5945   12.3454 N   0  0  0  0  0  0  0  0  0  0  0  0
   -5.9408   -7.9437   12.4497 C   0  0  0  0  0  0  0  0  0  0  0  0
   -5.4788   -5.5967   12.6743 C   0  0  0  0  0  0  0  0  0  0  0  0
   -5.9345    0.9631    5.8054 N   0  0  0  0  0  0  0  0  0  0  0  0
   -5.6070    0.3367    5.0750 H   0  0  0  0  0  0  0  0  0  0  0  0
  -10.8926    1.1611    7.0777 Cl  0  0  0  0  0  0  0  0  0  0  0  0
  -10.9621    3.0401    4.7855 F   0  0  0  0  0  0  0  0  0  0  0  0
   -7.2116    1.4875    5.5500 C   0  0  0  0  0  0  0  0  0  0  0  0
   -8.2931    1.1096    6.3459 C   0  0  0  0  0  0  0  0  0  0  0  0
   -7.3987    2.3865    4.5001 C   0  0  0  0  0  0  0  0  0  0  0  0
   -9.5617    1.6309    6.0920 C   0  0  0  0  0  0  0  0  0  0  0  0
   -8.6675    2.9077    4.2461 C   0  0  0  0  0  0  0  0  0  0  0  0
   -9.7489    2.5300    5.0420 C   0  0  0  0  0  0  0  0  0  0  0  0
   -3.4189   -1.8606   10.9622 O   0  0  0  0  0  0  0  0  0  0  0  0
   -2.2436   -4.1077   12.6278 O   0  0  0  0  0  0  0  0  0  0  0  0
   -2.1894   -2.5654   10.8290 C   0  0  0  0  0  0  0  0  0  0  0  0
   -1.2142   -2.1069   11.8854 C   0  0  0  0  0  0  0  0  0  0  0  0
   -2.4098   -4.0168   11.2022 C   0  0  0  0  0  0  0  0  0  0  0  0
   -1.6801   -2.8782   13.1041 C   0  0  0  0  0  0  0  0  0  0  0  0
 23 28  1  0
 24 30  1  0
 32 35  1  0
 32 36  1  0
 31 33  1  0
 31  3  1  0
 11 13  2  0
 12  4  1  0
 12 13  1  0
 12 14  1  0
  1  7  2  0
  1 10  1  0
 21  9  1  0
 21 25  1  0
 21 22  1  0
  2  9  1  0
  2 10  2  0
 18 17  1  0
 18 19  1  0
 18 20  1  0
 33 34  1  0
 33 35  1  0
 34 36  1  0
  3  4  1  0
  3  5  2  0
  4  8  2  0
  5  7  1  0
  6  7  1  0
  6  8  1  0
  6  9  2  0
 13 15  1  0
 25 26  2  0
 25 27  1  0
 15 16  2  0
 17 16  1  0
 26 28  1  0
 27 29  2  0
 28 30  2  0
 29 30  1  0
M  END
> <PUBCHEM_COMPOUND_CID>
10184653

> <PUBCHEM_CONFORMER_RMSD>
1

> <PUBCHEM_CONFORMER_DIVERSEORDER>
1
55
19
37
62
57
35
28
53
34
56
41
17
51
59
61
43
13
31
50
33
32
60
25
54
27
8
16
20
12
38
65
9
48
40
7
21
44
18
47
10
29
58
4
45
6
15
11
22
63
30
39
52
23
36
26
46
49
64
14
24
42
3
5
2

> <PUBCHEM_MMFF94_PARTIAL_CHARGES>
42
1 -0.18
10 -0.81
11 0.28
13 0.28
14 0.28
15 0.08
16 0.12
17 -0.15
19 0.31
2 -0.19
20 -0.15
21 0.41
22 0.62
23 0.47
24 0.1
25 -0.14
26 0.41
27 -0.29
28 -0.15
29 -0.15
3 -0.56
30 0.18
31 -0.15
32 0.27
33 0.27
34 0.19
4 -0.36
42 0.15
43 0.15
44 0.37
45 0.4
46 0.15
47 0.15
5 -0.57
50 0.15
51 0.15
52 0.15
53 0.15
6 -0.55
7 -0.62
8 -0.6
9 -0.62

> <PUBCHEM_EFFECTIVE_ROTOR_COUNT>
10

> <PUBCHEM_PHARMACOPHORE_FEATURES>
12
1 10 cation
1 3 acceptor
1 4 acceptor
1 5 acceptor
1 6 donor
1 8 donor
3 7 9 23 cation
3 8 9 21 cation
5 3 11 12 13 14 rings
6 15 16 17 18 19 20 rings
6 24 28 29 30 31 34 rings
6 7 9 18 19 21 23 rings

> <PUBCHEM_HEAVY_ATOM_COUNT>
34

> <PUBCHEM_ATOM_DEF_STEREO_COUNT>
1

> <PUBCHEM_ATOM_UDEF_STEREO_COUNT>
0

> <PUBCHEM_BOND_DEF_STEREO_COUNT>
1

> <PUBCHEM_BOND_UDEF_STEREO_COUNT>
0

> <PUBCHEM_ISOTOPIC_ATOM_COUNT>
0

> <PUBCHEM_COMPONENT_COUNT>
1

> <PUBCHEM_CACTVS_TAUTO_COUNT>
6

> <PUBCHEM_CONFORMER_ID>
009B67CD00000001

> <PUBCHEM_MMFF94_ENERGY>
118.3863

> <PUBCHEM_FEATURE_SELFOVERLAP>
61.069

> <PUBCHEM_SHAPE_FINGERPRINT>
10050765 1 18409731725397260590
102385 1 18338237050937012855
10581848 127 18267048157042201945
10675989 125 17765712421274760985
10816530 23 18120663422938000737
10939801 23 17974850889678323372
12107183 9 18190160323388426594
12741549 16 17460587263948438879
12788726 201 18115875276836333234
12925494 130 18339077065050983644
13140716 1 17687186800226601262
13383665 225 18190204393246121460
13540713 4 18271814480219722286
14028597 1 17603577578055265275
14068700 686 18341337759526122742
14190465 44 18336823074577052925
14294032 229 18338254728900680980
14394314 77 17618513515589478757
14395042 24 18187930642324558101
14790565 3 18049448033442953445
15400415 2 17976265634705014989
15439362 3 18123748656634030244
19309040 13 18059285444874715076
19427546 62 18049165458685693621
20238998 120 18194403527617411343
23845131 108 18193558857484026109
24771293 8 18127703836151030955
27425 322 17908984301971085317
469060 322 18266194995910524210
550186 72 18265899249300781597
57527585 21 18269534161279665167
6004065 56 17976261562775526063
653340 110 18410019840245178567
9555976 147 18191279677237576986
9777508 108 18337114441401685095
9849439 229 18338796689486291428
9896288 288 18408602587053135962
9961470 85 18268707200098131368

> <PUBCHEM_SHAPE_MULTIPOLES>
651.79
16.98
9.14
1.35
16.63
7.82
0.79
16.53
7.63
-22.03
1.12
1.11
0.38
1.78

> <PUBCHEM_SHAPE_SELFOVERLAP>
1393.544

> <PUBCHEM_SHAPE_VOLUME>
363.9

> <PUBCHEM_COORDINATE_TYPE>
2
5
10

> <minimizedAffinity>
-9.09035

> <CNNscore>
0.3219473958

> <CNNaffinity>
7.4842963219

> <CNN_VS>
2.4095497131

> <CNNaffinity_variance>
0.0952029526

$$$$
10184653


 36 39  0  0  0  0  0  0  0  0999 V2000
  -26.0244    5.3794    4.8434 N   0  0  0  0  0  0  0  0  0  0  0  0
  -25.2053    3.1457    4.4611 N   0  0  0  0  0  0  0  0  0  0  0  0
  -25.4881    6.3121    8.3444 C   0  0  0  0  0  0  0  0  0  0  0  0
  -24.8838    5.1654    8.8475 C   0  0  0  0  0  0  0  0  0  0  0  0
  -25.8664    6.3728    6.9999 C   0  0  0  0  0  0  0  0  0  0  0  0
  -25.0424    4.1502    6.6537 C   0  0  0  0  0  0  0  0  0  0  0  0
  -25.6536    5.3029    6.1337 C   0  0  0  0  0  0  0  0  0  0  0  0
  -24.6591    4.0816    8.0045 C   0  0  0  0  0  0  0  0  0  0  0  0
  -24.8466    3.1026    5.7582 C   0  0  0  0  0  0  0  0  0  0  0  0
  -25.7797    4.2970    4.0772 C   0  0  0  0  0  0  0  0  0  0  0  0
  -25.3737    3.0192   10.8889 O   0  0  0  0  0  0  0  0  0  0  0  0
  -24.4998    5.0883   10.1881 N   0  0  0  0  0  0  0  0  0  0  0  0
  -24.7570    4.0567   11.1004 C   0  0  0  0  0  0  0  0  0  0  0  0
  -23.9692    5.8899   10.5231 H   0  0  0  0  0  0  0  0  0  0  0  0
  -24.1748    4.3526   12.4434 C   0  0  0  0  0  0  0  0  0  0  0  0
  -24.8620    4.0723   13.5598 C   0  0  0  0  0  0  0  0  0  0  0  0
  -24.3330    4.3352   14.9381 C   0  0  0  0  0  0  0  0  0  0  0  0
  -22.9956    4.9176   14.8967 N   0  0  0  0  0  0  0  0  0  0  0  0
  -22.0609    4.0127   14.2265 C   0  0  0  0  0  0  0  0  0  0  0  0
  -23.0206    6.2153   14.2200 C   0  0  0  0  0  0  0  0  0  0  0  0
  -24.2361    1.9065    6.2102 N   0  0  0  0  0  0  0  0  0  0  0  0
  -24.3898    1.7363    7.2004 H   0  0  0  0  0  0  0  0  0  0  0  0
  -22.4774   -0.6481    2.1332 Cl  0  0  0  0  0  0  0  0  0  0  0  0
  -20.3201   -1.3486    4.0423 F   0  0  0  0  0  0  0  0  0  0  0  0
  -23.2449    1.0807    5.6564 C   0  0  0  0  0  0  0  0  0  0  0  0
  -23.3399    0.6725    4.3259 C   0  0  0  0  0  0  0  0  0  0  0  0
  -22.1651    0.6682    6.4370 C   0  0  0  0  0  0  0  0  0  0  0  0
  -22.3549   -0.1479    3.7759 C   0  0  0  0  0  0  0  0  0  0  0  0
  -21.1802   -0.1524    5.8871 C   0  0  0  0  0  0  0  0  0  0  0  0
  -21.2751   -0.5604    4.5566 C   0  0  0  0  0  0  0  0  0  0  0  0
  -25.7221    7.3902    9.1454 O   0  0  0  0  0  0  0  0  0  0  0  0
  -24.8536   10.2444    9.6970 O   0  0  0  0  0  0  0  0  0  0  0  0
  -26.0817    8.6076    8.5013 C   0  0  0  0  0  0  0  0  0  0  0  0
  -27.0383    9.3880    9.3692 C   0  0  0  0  0  0  0  0  0  0  0  0
  -24.8719    9.5179    8.4560 C   0  0  0  0  0  0  0  0  0  0  0  0
  -26.1026   10.0364   10.3699 C   0  0  0  0  0  0  0  0  0  0  0  0
 23 28  1  0
 24 30  1  0
 32 35  1  0
 32 36  1  0
 31 33  1  0
 31  3  1  0
 11 13  2  0
 12  4  1  0
 12 13  1  0
 12 14  1  0
  1  7  2  0
  1 10  1  0
 21  9  1  0
 21 25  1  0
 21 22  1  0
  2  9  1  0
  2 10  2  0
 18 17  1  0
 18 19  1  0
 18 20  1  0
 33 34  1  0
 33 35  1  0
 34 36  1  0
  3  4  1  0
  3  5  2  0
  4  8  2  0
  5  7  1  0
  6  7  1  0
  6  8  1  0
  6  9  2  0
 13 15  1  0
 25 26  2  0
 25 27  1  0
 15 16  2  0
 17 16  1  0
 26 28  1  0
 27 29  2  0
 28 30  2  0
 29 30  1  0
M  END
> <PUBCHEM_COMPOUND_CID>
10184653

> <PUBCHEM_CONFORMER_RMSD>
1

> <PUBCHEM_CONFORMER_DIVERSEORDER>
1
55
19
37
62
57
35
28
53
34
56
41
17
51
59
61
43
13
31
50
33
32
60
25
54
27
8
16
20
12
38
65
9
48
40
7
21
44
18
47
10
29
58
4
45
6
15
11
22
63
30
39
52
23
36
26
46
49
64
14
24
42
3
5
2

> <PUBCHEM_MMFF94_PARTIAL_CHARGES>
42
1 -0.18
10 -0.81
11 0.28
13 0.28
14 0.28
15 0.08
16 0.12
17 -0.15
19 0.31
2 -0.19
20 -0.15
21 0.41
22 0.62
23 0.47
24 0.1
25 -0.14
26 0.41
27 -0.29
28 -0.15
29 -0.15
3 -0.56
30 0.18
31 -0.15
32 0.27
33 0.27
34 0.19
4 -0.36
42 0.15
43 0.15
44 0.37
45 0.4
46 0.15
47 0.15
5 -0.57
50 0.15
51 0.15
52 0.15
53 0.15
6 -0.55
7 -0.62
8 -0.6
9 -0.62

> <PUBCHEM_EFFECTIVE_ROTOR_COUNT>
10

> <PUBCHEM_PHARMACOPHORE_FEATURES>
12
1 10 cation
1 3 acceptor
1 4 acceptor
1 5 acceptor
1 6 donor
1 8 donor
3 7 9 23 cation
3 8 9 21 cation
5 3 11 12 13 14 rings
6 15 16 17 18 19 20 rings
6 24 28 29 30 31 34 rings
6 7 9 18 19 21 23 rings

> <PUBCHEM_HEAVY_ATOM_COUNT>
34

> <PUBCHEM_ATOM_DEF_STEREO_COUNT>
1

> <PUBCHEM_ATOM_UDEF_STEREO_COUNT>
0

> <PUBCHEM_BOND_DEF_STEREO_COUNT>
1

> <PUBCHEM_BOND_UDEF_STEREO_COUNT>
0

> <PUBCHEM_ISOTOPIC_ATOM_COUNT>
0

> <PUBCHEM_COMPONENT_COUNT>
1

> <PUBCHEM_CACTVS_TAUTO_COUNT>
6

> <PUBCHEM_CONFORMER_ID>
009B67CD00000001

> <PUBCHEM_MMFF94_ENERGY>
118.3863

> <PUBCHEM_FEATURE_SELFOVERLAP>
61.069

> <PUBCHEM_SHAPE_FINGERPRINT>
10050765 1 18409731725397260590
102385 1 18338237050937012855
10581848 127 18267048157042201945
10675989 125 17765712421274760985
10816530 23 18120663422938000737
10939801 23 17974850889678323372
12107183 9 18190160323388426594
12741549 16 17460587263948438879
12788726 201 18115875276836333234
12925494 130 18339077065050983644
13140716 1 17687186800226601262
13383665 225 18190204393246121460
13540713 4 18271814480219722286
14028597 1 17603577578055265275
14068700 686 18341337759526122742
14190465 44 18336823074577052925
14294032 229 18338254728900680980
14394314 77 17618513515589478757
14395042 24 18187930642324558101
14790565 3 18049448033442953445
15400415 2 17976265634705014989
15439362 3 18123748656634030244
19309040 13 18059285444874715076
19427546 62 18049165458685693621
20238998 120 18194403527617411343
23845131 108 18193558857484026109
24771293 8 18127703836151030955
27425 322 17908984301971085317
469060 322 18266194995910524210
550186 72 18265899249300781597
57527585 21 18269534161279665167
6004065 56 17976261562775526063
653340 110 18410019840245178567
9555976 147 18191279677237576986
9777508 108 18337114441401685095
9849439 229 18338796689486291428
9896288 288 18408602587053135962
9961470 85 18268707200098131368

> <PUBCHEM_SHAPE_MULTIPOLES>
651.79
16.98
9.14
1.35
16.63
7.82
0.79
16.53
7.63
-22.03
1.12
1.11
0.38
1.78

> <PUBCHEM_SHAPE_SELFOVERLAP>
1393.544

> <PUBCHEM_SHAPE_VOLUME>
363.9

> <PUBCHEM_COORDINATE_TYPE>
2
5
10

> <minimizedAffinity>
-5.85707

> <CNNscore>
0.2183144093

> <CNNaffinity>
6.1987895966

> <CNN_VS>
1.3532850742

> <CNNaffinity_variance>
0.0012814234

$$$$
10184653


 36 39  0  0  0  0  0  0  0  0999 V2000
    0.6218    1.2801   10.2915 N   0  0  0  0  0  0  0  0  0  0  0  0
   -1.1187    0.1574    9.0600 N   0  0  0  0  0  0  0  0  0  0  0  0
    1.3845    4.4927    8.7066 C   0  0  0  0  0  0  0  0  0  0  0  0
    0.4985    4.4906    7.6350 C   0  0  0  0  0  0  0  0  0  0  0  0
    1.4171    3.4106    9.5912 C   0  0  0  0  0  0  0  0  0  0  0  0
   -0.3143    2.3215    8.3444 C   0  0  0  0  0  0  0  0  0  0  0  0
    0.5761    2.3120    9.4305 C   0  0  0  0  0  0  0  0  0  0  0  0
   -0.3531    3.4059    7.4505 C   0  0  0  0  0  0  0  0  0  0  0  0
   -1.1383    1.2068    8.2167 C   0  0  0  0  0  0  0  0  0  0  0  0
   -0.2283    0.2592   10.0598 C   0  0  0  0  0  0  0  0  0  0  0  0
   -0.4891    7.2995    8.0202 O   0  0  0  0  0  0  0  0  0  0  0  0
    0.4531    5.5634    6.7420 N   0  0  0  0  0  0  0  0  0  0  0  0
   -0.0208    6.8607    6.9764 C   0  0  0  0  0  0  0  0  0  0  0  0
    0.8133    5.3559    5.8126 H   0  0  0  0  0  0  0  0  0  0  0  0
    0.1025    7.7192    5.7606 C   0  0  0  0  0  0  0  0  0  0  0  0
   -0.9801    8.0277    5.0327 C   0  0  0  0  0  0  0  0  0  0  0  0
   -0.9278    8.8911    3.8077 C   0  0  0  0  0  0  0  0  0  0  0  0
   -1.6935   10.1206    3.9856 N   0  0  0  0  0  0  0  0  0  0  0  0
   -2.8491    9.8861    4.8525 C   0  0  0  0  0  0  0  0  0  0  0  0
   -0.8471   11.1776    4.5413 C   0  0  0  0  0  0  0  0  0  0  0  0
   -2.0626    1.1446    7.1446 N   0  0  0  0  0  0  0  0  0  0  0  0
   -1.6090    1.0709    6.2380 H   0  0  0  0  0  0  0  0  0  0  0  0
   -6.7758   -0.3515    5.8075 Cl  0  0  0  0  0  0  0  0  0  0  0  0
   -7.4501    2.3620    6.7933 F   0  0  0  0  0  0  0  0  0  0  0  0
   -3.4300    1.4494    7.0536 C   0  0  0  0  0  0  0  0  0  0  0  0
   -4.3217    0.5095    6.5364 C   0  0  0  0  0  0  0  0  0  0  0  0
   -3.8969    2.6926    7.4803 C   0  0  0  0  0  0  0  0  0  0  0  0
   -5.6802    0.8126    6.4463 C   0  0  0  0  0  0  0  0  0  0  0  0
   -5.2555    2.9957    7.3900 C   0  0  0  0  0  0  0  0  0  0  0  0
   -6.1472    2.0558    6.8731 C   0  0  0  0  0  0  0  0  0  0  0  0
    2.2318    5.5404    8.9136 O   0  0  0  0  0  0  0  0  0  0  0  0
    4.6668    7.2870    9.3883 O   0  0  0  0  0  0  0  0  0  0  0  0
    3.5898    5.3591    8.5277 C   0  0  0  0  0  0  0  0  0  0  0  0
    3.9267    6.2759    7.3773 C   0  0  0  0  0  0  0  0  0  0  0  0
    4.4896    5.8803    9.6292 C   0  0  0  0  0  0  0  0  0  0  0  0
    4.1623    7.5968    8.0823 C   0  0  0  0  0  0  0  0  0  0  0  0
 23 28  1  0
 24 30  1  0
 32 35  1  0
 32 36  1  0
 31 33  1  0
 31  3  1  0
 11 13  2  0
 12  4  1  0
 12 13  1  0
 12 14  1  0
  1  7  2  0
  1 10  1  0
 21  9  1  0
 21 25  1  0
 21 22  1  0
  2  9  1  0
  2 10  2  0
 18 17  1  0
 18 19  1  0
 18 20  1  0
 33 34  1  0
 33 35  1  0
 34 36  1  0
  3  4  1  0
  3  5  2  0
  4  8  2  0
  5  7  1  0
  6  7  1  0
  6  8  1  0
  6  9  2  0
 13 15  1  0
 25 26  2  0
 25 27  1  0
 15 16  2  0
 17 16  1  0
 26 28  1  0
 27 29  2  0
 28 30  2  0
 29 30  1  0
M  END
> <PUBCHEM_COMPOUND_CID>
10184653

> <PUBCHEM_CONFORMER_RMSD>
1

> <PUBCHEM_CONFORMER_DIVERSEORDER>
1
55
19
37
62
57
35
28
53
34
56
41
17
51
59
61
43
13
31
50
33
32
60
25
54
27
8
16
20
12
38
65
9
48
40
7
21
44
18
47
10
29
58
4
45
6
15
11
22
63
30
39
52
23
36
26
46
49
64
14
24
42
3
5
2

> <PUBCHEM_MMFF94_PARTIAL_CHARGES>
42
1 -0.18
10 -0.81
11 0.28
13 0.28
14 0.28
15 0.08
16 0.12
17 -0.15
19 0.31
2 -0.19
20 -0.15
21 0.41
22 0.62
23 0.47
24 0.1
25 -0.14
26 0.41
27 -0.29
28 -0.15
29 -0.15
3 -0.56
30 0.18
31 -0.15
32 0.27
33 0.27
34 0.19
4 -0.36
42 0.15
43 0.15
44 0.37
45 0.4
46 0.15
47 0.15
5 -0.57
50 0.15
51 0.15
52 0.15
53 0.15
6 -0.55
7 -0.62
8 -0.6
9 -0.62

> <PUBCHEM_EFFECTIVE_ROTOR_COUNT>
10

> <PUBCHEM_PHARMACOPHORE_FEATURES>
12
1 10 cation
1 3 acceptor
1 4 acceptor
1 5 acceptor
1 6 donor
1 8 donor
3 7 9 23 cation
3 8 9 21 cation
5 3 11 12 13 14 rings
6 15 16 17 18 19 20 rings
6 24 28 29 30 31 34 rings
6 7 9 18 19 21 23 rings

> <PUBCHEM_HEAVY_ATOM_COUNT>
34

> <PUBCHEM_ATOM_DEF_STEREO_COUNT>
1

> <PUBCHEM_ATOM_UDEF_STEREO_COUNT>
0

> <PUBCHEM_BOND_DEF_STEREO_COUNT>
1

> <PUBCHEM_BOND_UDEF_STEREO_COUNT>
0

> <PUBCHEM_ISOTOPIC_ATOM_COUNT>
0

> <PUBCHEM_COMPONENT_COUNT>
1

> <PUBCHEM_CACTVS_TAUTO_COUNT>
6

> <PUBCHEM_CONFORMER_ID>
009B67CD00000001

> <PUBCHEM_MMFF94_ENERGY>
118.3863

> <PUBCHEM_FEATURE_SELFOVERLAP>
61.069

> <PUBCHEM_SHAPE_FINGERPRINT>
10050765 1 18409731725397260590
102385 1 18338237050937012855
10581848 127 18267048157042201945
10675989 125 17765712421274760985
10816530 23 18120663422938000737
10939801 23 17974850889678323372
12107183 9 18190160323388426594
12741549 16 17460587263948438879
12788726 201 18115875276836333234
12925494 130 18339077065050983644
13140716 1 17687186800226601262
13383665 225 18190204393246121460
13540713 4 18271814480219722286
14028597 1 17603577578055265275
14068700 686 18341337759526122742
14190465 44 18336823074577052925
14294032 229 18338254728900680980
14394314 77 17618513515589478757
14395042 24 18187930642324558101
14790565 3 18049448033442953445
15400415 2 17976265634705014989
15439362 3 18123748656634030244
19309040 13 18059285444874715076
19427546 62 18049165458685693621
20238998 120 18194403527617411343
23845131 108 18193558857484026109
24771293 8 18127703836151030955
27425 322 17908984301971085317
469060 322 18266194995910524210
550186 72 18265899249300781597
57527585 21 18269534161279665167
6004065 56 17976261562775526063
653340 110 18410019840245178567
9555976 147 18191279677237576986
9777508 108 18337114441401685095
9849439 229 18338796689486291428
9896288 288 18408602587053135962
9961470 85 18268707200098131368

> <PUBCHEM_SHAPE_MULTIPOLES>
651.79
16.98
9.14
1.35
16.63
7.82
0.79
16.53
7.63
-22.03
1.12
1.11
0.38
1.78

> <PUBCHEM_SHAPE_SELFOVERLAP>
1393.544

> <PUBCHEM_SHAPE_VOLUME>
363.9

> <PUBCHEM_COORDINATE_TYPE>
2
5
10

> <minimizedAffinity>
-8.05773

> <CNNscore>
0.2131084055

> <CNNaffinity>
6.1734805107

> <CNN_VS>
1.3156205416

> <CNNaffinity_variance>
0.2959439158

$$$$
10184653


 36 39  0  0  0  0  0  0  0  0999 V2000
   19.1114   -3.7868   10.6892 N   0  0  0  0  0  0  0  0  0  0  0  0
   18.1030   -5.6805    9.5923 N   0  0  0  0  0  0  0  0  0  0  0  0
   21.2717   -1.9979    8.3338 C   0  0  0  0  0  0  0  0  0  0  0  0
   21.1180   -2.7612    7.1819 C   0  0  0  0  0  0  0  0  0  0  0  0
   20.5938   -2.3512    9.5044 C   0  0  0  0  0  0  0  0  0  0  0  0
   19.6082   -4.2254    8.3842 C   0  0  0  0  0  0  0  0  0  0  0  0
   19.7552   -3.4623    9.5542 C   0  0  0  0  0  0  0  0  0  0  0  0
   20.2865   -3.8765    7.2032 C   0  0  0  0  0  0  0  0  0  0  0  0
   18.7625   -5.3275    8.4728 C   0  0  0  0  0  0  0  0  0  0  0  0
   18.3200   -4.8778   10.6465 C   0  0  0  0  0  0  0  0  0  0  0  0
   20.2998   -0.9479    4.9333 O   0  0  0  0  0  0  0  0  0  0  0  0
   21.7880   -2.4223    6.0043 N   0  0  0  0  0  0  0  0  0  0  0  0
   21.3568   -1.5655    4.9832 C   0  0  0  0  0  0  0  0  0  0  0  0
   22.6993   -2.8627    5.8941 H   0  0  0  0  0  0  0  0  0  0  0  0
   22.3662   -1.4649    3.8871 C   0  0  0  0  0  0  0  0  0  0  0  0
   23.3704   -2.3490    3.8035 C   0  0  0  0  0  0  0  0  0  0  0  0
   24.4111   -2.3107    2.7245 C   0  0  0  0  0  0  0  0  0  0  0  0
   25.6355   -1.6629    3.1836 N   0  0  0  0  0  0  0  0  0  0  0  0
   26.0275   -2.1759    4.4970 C   0  0  0  0  0  0  0  0  0  0  0  0
   26.7162   -1.8618    2.2167 C   0  0  0  0  0  0  0  0  0  0  0  0
   18.5649   -6.1456    7.3329 N   0  0  0  0  0  0  0  0  0  0  0  0
   17.6244   -6.0725    6.9545 H   0  0  0  0  0  0  0  0  0  0  0  0
   22.7259   -9.1244    7.5643 Cl  0  0  0  0  0  0  0  0  0  0  0  0
   21.4040  -10.4127    5.2444 F   0  0  0  0  0  0  0  0  0  0  0  0
   19.2884   -7.2274    6.8061 C   0  0  0  0  0  0  0  0  0  0  0  0
   20.5058   -7.5973    7.3778 C   0  0  0  0  0  0  0  0  0  0  0  0
   18.7895   -7.9320    5.7107 C   0  0  0  0  0  0  0  0  0  0  0  0
   21.2243   -8.6722    6.8543 C   0  0  0  0  0  0  0  0  0  0  0  0
   19.5082   -9.0069    5.1870 C   0  0  0  0  0  0  0  0  0  0  0  0
   20.7254   -9.3770    5.7588 C   0  0  0  0  0  0  0  0  0  0  0  0
   22.0797   -0.9000    8.3446 O   0  0  0  0  0  0  0  0  0  0  0  0
   24.3618    1.0762    8.6474 O   0  0  0  0  0  0  0  0  0  0  0  0
   23.3202   -1.0175    9.0328 C   0  0  0  0  0  0  0  0  0  0  0  0
   24.4429   -1.2136    8.0437 C   0  0  0  0  0  0  0  0  0  0  0  0
   23.6682    0.3193    9.6544 C   0  0  0  0  0  0  0  0  0  0  0  0
   24.6909    0.2013    7.5600 C   0  0  0  0  0  0  0  0  0  0  0  0
 23 28  1  0
 24 30  1  0
 32 35  1  0
 32 36  1  0
 31 33  1  0
 31  3  1  0
 11 13  2  0
 12  4  1  0
 12 13  1  0
 12 14  1  0
  1  7  2  0
  1 10  1  0
 21  9  1  0
 21 25  1  0
 21 22  1  0
  2  9  1  0
  2 10  2  0
 18 17  1  0
 18 19  1  0
 18 20  1  0
 33 34  1  0
 33 35  1  0
 34 36  1  0
  3  4  1  0
  3  5  2  0
  4  8  2  0
  5  7  1  0
  6  7  1  0
  6  8  1  0
  6  9  2  0
 13 15  1  0
 25 26  2  0
 25 27  1  0
 15 16  2  0
 17 16  1  0
 26 28  1  0
 27 29  2  0
 28 30  2  0
 29 30  1  0
M  END
> <PUBCHEM_COMPOUND_CID>
10184653

> <PUBCHEM_CONFORMER_RMSD>
1

> <PUBCHEM_CONFORMER_DIVERSEORDER>
1
55
19
37
62
57
35
28
53
34
56
41
17
51
59
61
43
13
31
50
33
32
60
25
54
27
8
16
20
12
38
65
9
48
40
7
21
44
18
47
10
29
58
4
45
6
15
11
22
63
30
39
52
23
36
26
46
49
64
14
24
42
3
5
2

> <PUBCHEM_MMFF94_PARTIAL_CHARGES>
42
1 -0.18
10 -0.81
11 0.28
13 0.28
14 0.28
15 0.08
16 0.12
17 -0.15
19 0.31
2 -0.19
20 -0.15
21 0.41
22 0.62
23 0.47
24 0.1
25 -0.14
26 0.41
27 -0.29
28 -0.15
29 -0.15
3 -0.56
30 0.18
31 -0.15
32 0.27
33 0.27
34 0.19
4 -0.36
42 0.15
43 0.15
44 0.37
45 0.4
46 0.15
47 0.15
5 -0.57
50 0.15
51 0.15
52 0.15
53 0.15
6 -0.55
7 -0.62
8 -0.6
9 -0.62

> <PUBCHEM_EFFECTIVE_ROTOR_COUNT>
10

> <PUBCHEM_PHARMACOPHORE_FEATURES>
12
1 10 cation
1 3 acceptor
1 4 acceptor
1 5 acceptor
1 6 donor
1 8 donor
3 7 9 23 cation
3 8 9 21 cation
5 3 11 12 13 14 rings
6 15 16 17 18 19 20 rings
6 24 28 29 30 31 34 rings
6 7 9 18 19 21 23 rings

> <PUBCHEM_HEAVY_ATOM_COUNT>
34

> <PUBCHEM_ATOM_DEF_STEREO_COUNT>
1

> <PUBCHEM_ATOM_UDEF_STEREO_COUNT>
0

> <PUBCHEM_BOND_DEF_STEREO_COUNT>
1

> <PUBCHEM_BOND_UDEF_STEREO_COUNT>
0

> <PUBCHEM_ISOTOPIC_ATOM_COUNT>
0

> <PUBCHEM_COMPONENT_COUNT>
1

> <PUBCHEM_CACTVS_TAUTO_COUNT>
6

> <PUBCHEM_CONFORMER_ID>
009B67CD00000001

> <PUBCHEM_MMFF94_ENERGY>
118.3863

> <PUBCHEM_FEATURE_SELFOVERLAP>
61.069

> <PUBCHEM_SHAPE_FINGERPRINT>
10050765 1 18409731725397260590
102385 1 18338237050937012855
10581848 127 18267048157042201945
10675989 125 17765712421274760985
10816530 23 18120663422938000737
10939801 23 17974850889678323372
12107183 9 18190160323388426594
12741549 16 17460587263948438879
12788726 201 18115875276836333234
12925494 130 18339077065050983644
13140716 1 17687186800226601262
13383665 225 18190204393246121460
13540713 4 18271814480219722286
14028597 1 17603577578055265275
14068700 686 18341337759526122742
14190465 44 18336823074577052925
14294032 229 18338254728900680980
14394314 77 17618513515589478757
14395042 24 18187930642324558101
14790565 3 18049448033442953445
15400415 2 17976265634705014989
15439362 3 18123748656634030244
19309040 13 18059285444874715076
19427546 62 18049165458685693621
20238998 120 18194403527617411343
23845131 108 18193558857484026109
24771293 8 18127703836151030955
27425 322 17908984301971085317
469060 322 18266194995910524210
550186 72 18265899249300781597
57527585 21 18269534161279665167
6004065 56 17976261562775526063
653340 110 18410019840245178567
9555976 147 18191279677237576986
9777508 108 18337114441401685095
9849439 229 18338796689486291428
9896288 288 18408602587053135962
9961470 85 18268707200098131368

> <PUBCHEM_SHAPE_MULTIPOLES>
651.79
16.98
9.14
1.35
16.63
7.82
0.79
16.53
7.63
-22.03
1.12
1.11
0.38
1.78

> <PUBCHEM_SHAPE_SELFOVERLAP>
1393.544

> <PUBCHEM_SHAPE_VOLUME>
363.9

> <PUBCHEM_COORDINATE_TYPE>
2
5
10

> <minimizedAffinity>
-5.84201

> <CNNscore>
0.1549539268

> <CNNaffinity>
5.3434224129

> <CNN_VS>
0.8279842734

> <CNNaffinity_variance>
0.4465279579

$$$$
10184653


 36 39  0  0  0  0  0  0  0  0999 V2000
   17.3418   -5.4263    9.2150 N   0  0  0  0  0  0  0  0  0  0  0  0
   18.8556   -3.6576    8.5934 N   0  0  0  0  0  0  0  0  0  0  0  0
   18.3688   -8.5550    7.6117 C   0  0  0  0  0  0  0  0  0  0  0  0
   19.4932   -8.1473    6.9027 C   0  0  0  0  0  0  0  0  0  0  0  0
   17.6550   -7.6338    8.3840 C   0  0  0  0  0  0  0  0  0  0  0  0
   19.1782   -5.8984    7.7464 C   0  0  0  0  0  0  0  0  0  0  0  0
   18.0409   -6.2981    8.4671 C   0  0  0  0  0  0  0  0  0  0  0  0
   19.9013   -6.8187    6.9676 C   0  0  0  0  0  0  0  0  0  0  0  0
   19.5325   -4.5565    7.8541 C   0  0  0  0  0  0  0  0  0  0  0  0
   17.7872   -4.1537    9.2379 C   0  0  0  0  0  0  0  0  0  0  0  0
   21.9250   -9.7740    7.5765 O   0  0  0  0  0  0  0  0  0  0  0  0
   20.2176   -9.0546    6.1264 N   0  0  0  0  0  0  0  0  0  0  0  0
   21.3517   -9.7905    6.4937 C   0  0  0  0  0  0  0  0  0  0  0  0
   19.8610   -9.1820    5.1813 H   0  0  0  0  0  0  0  0  0  0  0  0
   21.8329  -10.6541    5.3745 C   0  0  0  0  0  0  0  0  0  0  0  0
   23.0942  -11.1082    5.3592 C   0  0  0  0  0  0  0  0  0  0  0  0
   23.6384  -11.9856    4.2717 C   0  0  0  0  0  0  0  0  0  0  0  0
   24.6543  -11.2950    3.4839 N   0  0  0  0  0  0  0  0  0  0  0  0
   24.0743  -10.7613    2.2508 C   0  0  0  0  0  0  0  0  0  0  0  0
   25.2671  -10.2192    4.2647 C   0  0  0  0  0  0  0  0  0  0  0  0
   20.6686   -4.0791    7.1548 N   0  0  0  0  0  0  0  0  0  0  0  0
   21.5024   -4.6318    7.3350 H   0  0  0  0  0  0  0  0  0  0  0  0
   23.9542   -0.2374    6.3260 Cl  0  0  0  0  0  0  0  0  0  0  0  0
   21.7335    0.7192    4.6106 F   0  0  0  0  0  0  0  0  0  0  0  0
   20.9427   -2.8617    6.5114 C   0  0  0  0  0  0  0  0  0  0  0  0
   22.1681   -2.2262    6.7131 C   0  0  0  0  0  0  0  0  0  0  0  0
   19.9894   -2.2876    5.6706 C   0  0  0  0  0  0  0  0  0  0  0  0
   22.4402   -1.0168    6.0736 C   0  0  0  0  0  0  0  0  0  0  0  0
   20.2614   -1.0780    5.0313 C   0  0  0  0  0  0  0  0  0  0  0  0
   21.4868   -0.4426    5.2327 C   0  0  0  0  0  0  0  0  0  0  0  0
   17.9437   -9.8496    7.5677 O   0  0  0  0  0  0  0  0  0  0  0  0
   17.5818  -11.9814    9.6960 O   0  0  0  0  0  0  0  0  0  0  0  0
   16.8085  -10.1840    8.3586 C   0  0  0  0  0  0  0  0  0  0  0  0
   16.1855  -11.4623    7.8535 C   0  0  0  0  0  0  0  0  0  0  0  0
   17.2722  -10.5778    9.7458 C   0  0  0  0  0  0  0  0  0  0  0  0
   17.0883  -12.5174    8.4610 C   0  0  0  0  0  0  0  0  0  0  0  0
 23 28  1  0
 24 30  1  0
 32 35  1  0
 32 36  1  0
 31 33  1  0
 31  3  1  0
 11 13  2  0
 12  4  1  0
 12 13  1  0
 12 14  1  0
  1  7  2  0
  1 10  1  0
 21  9  1  0
 21 25  1  0
 21 22  1  0
  2  9  1  0
  2 10  2  0
 18 17  1  0
 18 19  1  0
 18 20  1  0
 33 34  1  0
 33 35  1  0
 34 36  1  0
  3  4  1  0
  3  5  2  0
  4  8  2  0
  5  7  1  0
  6  7  1  0
  6  8  1  0
  6  9  2  0
 13 15  1  0
 25 26  2  0
 25 27  1  0
 15 16  2  0
 17 16  1  0
 26 28  1  0
 27 29  2  0
 28 30  2  0
 29 30  1  0
M  END
> <PUBCHEM_COMPOUND_CID>
10184653

> <PUBCHEM_CONFORMER_RMSD>
1

> <PUBCHEM_CONFORMER_DIVERSEORDER>
1
55
19
37
62
57
35
28
53
34
56
41
17
51
59
61
43
13
31
50
33
32
60
25
54
27
8
16
20
12
38
65
9
48
40
7
21
44
18
47
10
29
58
4
45
6
15
11
22
63
30
39
52
23
36
26
46
49
64
14
24
42
3
5
2

> <PUBCHEM_MMFF94_PARTIAL_CHARGES>
42
1 -0.18
10 -0.81
11 0.28
13 0.28
14 0.28
15 0.08
16 0.12
17 -0.15
19 0.31
2 -0.19
20 -0.15
21 0.41
22 0.62
23 0.47
24 0.1
25 -0.14
26 0.41
27 -0.29
28 -0.15
29 -0.15
3 -0.56
30 0.18
31 -0.15
32 0.27
33 0.27
34 0.19
4 -0.36
42 0.15
43 0.15
44 0.37
45 0.4
46 0.15
47 0.15
5 -0.57
50 0.15
51 0.15
52 0.15
53 0.15
6 -0.55
7 -0.62
8 -0.6
9 -0.62

> <PUBCHEM_EFFECTIVE_ROTOR_COUNT>
10

> <PUBCHEM_PHARMACOPHORE_FEATURES>
12
1 10 cation
1 3 acceptor
1 4 acceptor
1 5 acceptor
1 6 donor
1 8 donor
3 7 9 23 cation
3 8 9 21 cation
5 3 11 12 13 14 rings
6 15 16 17 18 19 20 rings
6 24 28 29 30 31 34 rings
6 7 9 18 19 21 23 rings

> <PUBCHEM_HEAVY_ATOM_COUNT>
34

> <PUBCHEM_ATOM_DEF_STEREO_COUNT>
1

> <PUBCHEM_ATOM_UDEF_STEREO_COUNT>
0

> <PUBCHEM_BOND_DEF_STEREO_COUNT>
1

> <PUBCHEM_BOND_UDEF_STEREO_COUNT>
0

> <PUBCHEM_ISOTOPIC_ATOM_COUNT>
0

> <PUBCHEM_COMPONENT_COUNT>
1

> <PUBCHEM_CACTVS_TAUTO_COUNT>
6

> <PUBCHEM_CONFORMER_ID>
009B67CD00000001

> <PUBCHEM_MMFF94_ENERGY>
118.3863

> <PUBCHEM_FEATURE_SELFOVERLAP>
61.069

> <PUBCHEM_SHAPE_FINGERPRINT>
10050765 1 18409731725397260590
102385 1 18338237050937012855
10581848 127 18267048157042201945
10675989 125 17765712421274760985
10816530 23 18120663422938000737
10939801 23 17974850889678323372
12107183 9 18190160323388426594
12741549 16 17460587263948438879
12788726 201 18115875276836333234
12925494 130 18339077065050983644
13140716 1 17687186800226601262
13383665 225 18190204393246121460
13540713 4 18271814480219722286
14028597 1 17603577578055265275
14068700 686 18341337759526122742
14190465 44 18336823074577052925
14294032 229 18338254728900680980
14394314 77 17618513515589478757
14395042 24 18187930642324558101
14790565 3 18049448033442953445
15400415 2 17976265634705014989
15439362 3 18123748656634030244
19309040 13 18059285444874715076
19427546 62 18049165458685693621
20238998 120 18194403527617411343
23845131 108 18193558857484026109
24771293 8 18127703836151030955
27425 322 17908984301971085317
469060 322 18266194995910524210
550186 72 18265899249300781597
57527585 21 18269534161279665167
6004065 56 17976261562775526063
653340 110 18410019840245178567
9555976 147 18191279677237576986
9777508 108 18337114441401685095
9849439 229 18338796689486291428
9896288 288 18408602587053135962
9961470 85 18268707200098131368

> <PUBCHEM_SHAPE_MULTIPOLES>
651.79
16.98
9.14
1.35
16.63
7.82
0.79
16.53
7.63
-22.03
1.12
1.11
0.38
1.78

> <PUBCHEM_SHAPE_SELFOVERLAP>
1393.544

> <PUBCHEM_SHAPE_VOLUME>
363.9

> <PUBCHEM_COORDINATE_TYPE>
2
5
10

> <minimizedAffinity>
-6.14275

> <CNNscore>
0.1473814547

> <CNNaffinity>
5.2869491577

> <CNN_VS>
0.7791982293

> <CNNaffinity_variance>
0.5012562275

$$$$
10184653


 36 39  0  0  0  0  0  0  0  0999 V2000
   -3.6143  -21.8773   -4.3426 N   0  0  0  0  0  0  0  0  0  0  0  0
   -4.9019  -20.1676   -3.2356 N   0  0  0  0  0  0  0  0  0  0  0  0
   -1.5774  -20.3741   -6.9894 C   0  0  0  0  0  0  0  0  0  0  0  0
   -1.9246  -19.0324   -6.8784 C   0  0  0  0  0  0  0  0  0  0  0  0
   -2.1503  -21.3195   -6.1335 C   0  0  0  0  0  0  0  0  0  0  0  0
   -3.4162  -19.5956   -5.0545 C   0  0  0  0  0  0  0  0  0  0  0  0
   -3.0735  -20.9539   -5.1567 C   0  0  0  0  0  0  0  0  0  0  0  0
   -2.8444  -18.6390   -5.9114 C   0  0  0  0  0  0  0  0  0  0  0  0
   -4.3415  -19.2690   -4.0671 C   0  0  0  0  0  0  0  0  0  0  0  0
   -4.4987  -21.4341   -3.4260 C   0  0  0  0  0  0  0  0  0  0  0  0
   -1.1955  -16.1665   -6.3596 O   0  0  0  0  0  0  0  0  0  0  0  0
   -1.3618  -18.0752   -7.7254 N   0  0  0  0  0  0  0  0  0  0  0  0
   -1.0403  -16.7442   -7.4290 C   0  0  0  0  0  0  0  0  0  0  0  0
   -1.1695  -18.4056   -8.6689 H   0  0  0  0  0  0  0  0  0  0  0  0
   -0.4531  -16.0442   -8.6103 C   0  0  0  0  0  0  0  0  0  0  0  0
   -0.7255  -16.4632   -9.8542 C   0  0  0  0  0  0  0  0  0  0  0  0
   -0.1770  -15.8010  -11.0828 C   0  0  0  0  0  0  0  0  0  0  0  0
   -1.0359  -16.0253  -12.2412 N   0  0  0  0  0  0  0  0  0  0  0  0
   -0.5033  -15.3365  -13.4175 C   0  0  0  0  0  0  0  0  0  0  0  0
   -1.1737  -17.4575  -12.5095 C   0  0  0  0  0  0  0  0  0  0  0  0
   -4.7367  -17.9181   -3.9042 N   0  0  0  0  0  0  0  0  0  0  0  0
   -4.0513  -17.3663   -3.3955 H   0  0  0  0  0  0  0  0  0  0  0  0
   -9.0455  -16.2557   -1.6879 Cl  0  0  0  0  0  0  0  0  0  0  0  0
   -9.6139  -15.3611   -4.4567 F   0  0  0  0  0  0  0  0  0  0  0  0
   -5.9748  -17.2702   -4.0400 C   0  0  0  0  0  0  0  0  0  0  0  0
   -6.8007  -17.1032   -2.9283 C   0  0  0  0  0  0  0  0  0  0  0  0
   -6.3789  -16.7935   -5.2870 C   0  0  0  0  0  0  0  0  0  0  0  0
   -8.0306  -16.4592   -3.0635 C   0  0  0  0  0  0  0  0  0  0  0  0
   -7.6090  -16.1497   -5.4222 C   0  0  0  0  0  0  0  0  0  0  0  0
   -8.4348  -15.9825   -4.3106 C   0  0  0  0  0  0  0  0  0  0  0  0
   -0.6797  -20.7907   -7.9270 O   0  0  0  0  0  0  0  0  0  0  0  0
    1.8450  -21.1551   -9.5696 O   0  0  0  0  0  0  0  0  0  0  0  0
    0.6822  -20.8801   -7.5228 C   0  0  0  0  0  0  0  0  0  0  0  0
    1.1565  -22.3095   -7.6184 C   0  0  0  0  0  0  0  0  0  0  0  0
    1.5489  -20.1836   -8.5514 C   0  0  0  0  0  0  0  0  0  0  0  0
    1.4462  -22.4498   -9.0995 C   0  0  0  0  0  0  0  0  0  0  0  0
 23 28  1  0
 24 30  1  0
 32 35  1  0
 32 36  1  0
 31 33  1  0
 31  3  1  0
 11 13  2  0
 12  4  1  0
 12 13  1  0
 12 14  1  0
  1  7  2  0
  1 10  1  0
 21  9  1  0
 21 25  1  0
 21 22  1  0
  2  9  1  0
  2 10  2  0
 18 17  1  0
 18 19  1  0
 18 20  1  0
 33 34  1  0
 33 35  1  0
 34 36  1  0
  3  4  1  0
  3  5  2  0
  4  8  2  0
  5  7  1  0
  6  7  1  0
  6  8  1  0
  6  9  2  0
 13 15  1  0
 25 26  2  0
 25 27  1  0
 15 16  2  0
 17 16  1  0
 26 28  1  0
 27 29  2  0
 28 30  2  0
 29 30  1  0
M  END
> <PUBCHEM_COMPOUND_CID>
10184653

> <PUBCHEM_CONFORMER_RMSD>
1

> <PUBCHEM_CONFORMER_DIVERSEORDER>
1
55
19
37
62
57
35
28
53
34
56
41
17
51
59
61
43
13
31
50
33
32
60
25
54
27
8
16
20
12
38
65
9
48
40
7
21
44
18
47
10
29
58
4
45
6
15
11
22
63
30
39
52
23
36
26
46
49
64
14
24
42
3
5
2

> <PUBCHEM_MMFF94_PARTIAL_CHARGES>
42
1 -0.18
10 -0.81
11 0.28
13 0.28
14 0.28
15 0.08
16 0.12
17 -0.15
19 0.31
2 -0.19
20 -0.15
21 0.41
22 0.62
23 0.47
24 0.1
25 -0.14
26 0.41
27 -0.29
28 -0.15
29 -0.15
3 -0.56
30 0.18
31 -0.15
32 0.27
33 0.27
34 0.19
4 -0.36
42 0.15
43 0.15
44 0.37
45 0.4
46 0.15
47 0.15
5 -0.57
50 0.15
51 0.15
52 0.15
53 0.15
6 -0.55
7 -0.62
8 -0.6
9 -0.62

> <PUBCHEM_EFFECTIVE_ROTOR_COUNT>
10

> <PUBCHEM_PHARMACOPHORE_FEATURES>
12
1 10 cation
1 3 acceptor
1 4 acceptor
1 5 acceptor
1 6 donor
1 8 donor
3 7 9 23 cation
3 8 9 21 cation
5 3 11 12 13 14 rings
6 15 16 17 18 19 20 rings
6 24 28 29 30 31 34 rings
6 7 9 18 19 21 23 rings

> <PUBCHEM_HEAVY_ATOM_COUNT>
34

> <PUBCHEM_ATOM_DEF_STEREO_COUNT>
1

> <PUBCHEM_ATOM_UDEF_STEREO_COUNT>
0

> <PUBCHEM_BOND_DEF_STEREO_COUNT>
1

> <PUBCHEM_BOND_UDEF_STEREO_COUNT>
0

> <PUBCHEM_ISOTOPIC_ATOM_COUNT>
0

> <PUBCHEM_COMPONENT_COUNT>
1

> <PUBCHEM_CACTVS_TAUTO_COUNT>
6

> <PUBCHEM_CONFORMER_ID>
009B67CD00000001

> <PUBCHEM_MMFF94_ENERGY>
118.3863

> <PUBCHEM_FEATURE_SELFOVERLAP>
61.069

> <PUBCHEM_SHAPE_FINGERPRINT>
10050765 1 18409731725397260590
102385 1 18338237050937012855
10581848 127 18267048157042201945
10675989 125 17765712421274760985
10816530 23 18120663422938000737
10939801 23 17974850889678323372
12107183 9 18190160323388426594
12741549 16 17460587263948438879
12788726 201 18115875276836333234
12925494 130 18339077065050983644
13140716 1 17687186800226601262
13383665 225 18190204393246121460
13540713 4 18271814480219722286
14028597 1 17603577578055265275
14068700 686 18341337759526122742
14190465 44 18336823074577052925
14294032 229 18338254728900680980
14394314 77 17618513515589478757
14395042 24 18187930642324558101
14790565 3 18049448033442953445
15400415 2 17976265634705014989
15439362 3 18123748656634030244
19309040 13 18059285444874715076
19427546 62 18049165458685693621
20238998 120 18194403527617411343
23845131 108 18193558857484026109
24771293 8 18127703836151030955
27425 322 17908984301971085317
469060 322 18266194995910524210
550186 72 18265899249300781597
57527585 21 18269534161279665167
6004065 56 17976261562775526063
653340 110 18410019840245178567
9555976 147 18191279677237576986
9777508 108 18337114441401685095
9849439 229 18338796689486291428
9896288 288 18408602587053135962
9961470 85 18268707200098131368

> <PUBCHEM_SHAPE_MULTIPOLES>
651.79
16.98
9.14
1.35
16.63
7.82
0.79
16.53
7.63
-22.03
1.12
1.11
0.38
1.78

> <PUBCHEM_SHAPE_SELFOVERLAP>
1393.544

> <PUBCHEM_SHAPE_VOLUME>
363.9

> <PUBCHEM_COORDINATE_TYPE>
2
5
10

> <minimizedAffinity>
-5.51156

> <CNNscore>
0.1054580584

> <CNNaffinity>
4.3851327896

> <CNN_VS>
0.4624475837

> <CNNaffinity_variance>
0.9842340350

$$$$
10184653


 36 39  0  0  0  0  0  0  0  0999 V2000
  -14.2611   17.0381   -4.9935 N   0  0  0  0  0  0  0  0  0  0  0  0
  -11.9504   16.4395   -5.3234 N   0  0  0  0  0  0  0  0  0  0  0  0
  -16.1594   14.0979   -3.9138 C   0  0  0  0  0  0  0  0  0  0  0  0
  -15.1686   13.1228   -3.8859 C   0  0  0  0  0  0  0  0  0  0  0  0
  -15.8436   15.4077   -4.2867 C   0  0  0  0  0  0  0  0  0  0  0  0
  -13.5540   14.7794   -4.6054 C   0  0  0  0  0  0  0  0  0  0  0  0
  -14.5461   15.7732   -4.6373 C   0  0  0  0  0  0  0  0  0  0  0  0
  -13.8637   13.4601   -4.2314 C   0  0  0  0  0  0  0  0  0  0  0  0
  -12.2702   15.1825   -4.9621 C   0  0  0  0  0  0  0  0  0  0  0  0
  -12.9789   17.3026   -5.3167 C   0  0  0  0  0  0  0  0  0  0  0  0
  -16.3372   10.8697   -5.4895 O   0  0  0  0  0  0  0  0  0  0  0  0
  -15.4671   11.8097   -3.5159 N   0  0  0  0  0  0  0  0  0  0  0  0
  -16.0146   10.7936   -4.3099 C   0  0  0  0  0  0  0  0  0  0  0  0
  -15.2528   11.5841   -2.5465 H   0  0  0  0  0  0  0  0  0  0  0  0
  -16.1824    9.5247   -3.5404 C   0  0  0  0  0  0  0  0  0  0  0  0
  -16.8890    9.5080   -2.4013 C   0  0  0  0  0  0  0  0  0  0  0  0
  -17.1037    8.2680   -1.5857 C   0  0  0  0  0  0  0  0  0  0  0  0
  -18.4517    7.7375   -1.7619 N   0  0  0  0  0  0  0  0  0  0  0  0
  -19.3791    8.8045   -2.1403 C   0  0  0  0  0  0  0  0  0  0  0  0
  -18.4590    6.6763   -2.7700 C   0  0  0  0  0  0  0  0  0  0  0  0
  -11.2167   14.2350   -4.9542 N   0  0  0  0  0  0  0  0  0  0  0  0
  -10.9581   13.9421   -4.0159 H   0  0  0  0  0  0  0  0  0  0  0  0
   -6.7435   11.9927   -6.0509 Cl  0  0  0  0  0  0  0  0  0  0  0  0
   -7.5525   12.7100   -8.8114 F   0  0  0  0  0  0  0  0  0  0  0  0
  -10.2845   13.8465   -5.9295 C   0  0  0  0  0  0  0  0  0  0  0  0
   -9.1131   13.1895   -5.5527 C   0  0  0  0  0  0  0  0  0  0  0  0
  -10.5299   14.1179   -7.2754 C   0  0  0  0  0  0  0  0  0  0  0  0
   -8.1872   12.8035   -6.5219 C   0  0  0  0  0  0  0  0  0  0  0  0
   -9.6037   13.7321   -8.2447 C   0  0  0  0  0  0  0  0  0  0  0  0
   -8.4325   13.0749   -7.8680 C   0  0  0  0  0  0  0  0  0  0  0  0
  -17.4472   13.7984   -3.5813 O   0  0  0  0  0  0  0  0  0  0  0  0
  -18.1565   12.7354   -0.8296 O   0  0  0  0  0  0  0  0  0  0  0  0
  -17.9921   14.4612   -2.4457 C   0  0  0  0  0  0  0  0  0  0  0  0
  -19.4463   14.0930   -2.2812 C   0  0  0  0  0  0  0  0  0  0  0  0
  -17.3697   13.8835   -1.1913 C   0  0  0  0  0  0  0  0  0  0  0  0
  -19.3568   12.7350   -1.6142 C   0  0  0  0  0  0  0  0  0  0  0  0
 23 28  1  0
 24 30  1  0
 32 35  1  0
 32 36  1  0
 31 33  1  0
 31  3  1  0
 11 13  2  0
 12  4  1  0
 12 13  1  0
 12 14  1  0
  1  7  2  0
  1 10  1  0
 21  9  1  0
 21 25  1  0
 21 22  1  0
  2  9  1  0
  2 10  2  0
 18 17  1  0
 18 19  1  0
 18 20  1  0
 33 34  1  0
 33 35  1  0
 34 36  1  0
  3  4  1  0
  3  5  2  0
  4  8  2  0
  5  7  1  0
  6  7  1  0
  6  8  1  0
  6  9  2  0
 13 15  1  0
 25 26  2  0
 25 27  1  0
 15 16  2  0
 17 16  1  0
 26 28  1  0
 27 29  2  0
 28 30  2  0
 29 30  1  0
M  END
> <PUBCHEM_COMPOUND_CID>
10184653

> <PUBCHEM_CONFORMER_RMSD>
1

> <PUBCHEM_CONFORMER_DIVERSEORDER>
1
55
19
37
62
57
35
28
53
34
56
41
17
51
59
61
43
13
31
50
33
32
60
25
54
27
8
16
20
12
38
65
9
48
40
7
21
44
18
47
10
29
58
4
45
6
15
11
22
63
30
39
52
23
36
26
46
49
64
14
24
42
3
5
2

> <PUBCHEM_MMFF94_PARTIAL_CHARGES>
42
1 -0.18
10 -0.81
11 0.28
13 0.28
14 0.28
15 0.08
16 0.12
17 -0.15
19 0.31
2 -0.19
20 -0.15
21 0.41
22 0.62
23 0.47
24 0.1
25 -0.14
26 0.41
27 -0.29
28 -0.15
29 -0.15
3 -0.56
30 0.18
31 -0.15
32 0.27
33 0.27
34 0.19
4 -0.36
42 0.15
43 0.15
44 0.37
45 0.4
46 0.15
47 0.15
5 -0.57
50 0.15
51 0.15
52 0.15
53 0.15
6 -0.55
7 -0.62
8 -0.6
9 -0.62

> <PUBCHEM_EFFECTIVE_ROTOR_COUNT>
10

> <PUBCHEM_PHARMACOPHORE_FEATURES>
12
1 10 cation
1 3 acceptor
1 4 acceptor
1 5 acceptor
1 6 donor
1 8 donor
3 7 9 23 cation
3 8 9 21 cation
5 3 11 12 13 14 rings
6 15 16 17 18 19 20 rings
6 24 28 29 30 31 34 rings
6 7 9 18 19 21 23 rings

> <PUBCHEM_HEAVY_ATOM_COUNT>
34

> <PUBCHEM_ATOM_DEF_STEREO_COUNT>
1

> <PUBCHEM_ATOM_UDEF_STEREO_COUNT>
0

> <PUBCHEM_BOND_DEF_STEREO_COUNT>
1

> <PUBCHEM_BOND_UDEF_STEREO_COUNT>
0

> <PUBCHEM_ISOTOPIC_ATOM_COUNT>
0

> <PUBCHEM_COMPONENT_COUNT>
1

> <PUBCHEM_CACTVS_TAUTO_COUNT>
6

> <PUBCHEM_CONFORMER_ID>
009B67CD00000001

> <PUBCHEM_MMFF94_ENERGY>
118.3863

> <PUBCHEM_FEATURE_SELFOVERLAP>
61.069

> <PUBCHEM_SHAPE_FINGERPRINT>
10050765 1 18409731725397260590
102385 1 18338237050937012855
10581848 127 18267048157042201945
10675989 125 17765712421274760985
10816530 23 18120663422938000737
10939801 23 17974850889678323372
12107183 9 18190160323388426594
12741549 16 17460587263948438879
12788726 201 18115875276836333234
12925494 130 18339077065050983644
13140716 1 17687186800226601262
13383665 225 18190204393246121460
13540713 4 18271814480219722286
14028597 1 17603577578055265275
14068700 686 18341337759526122742
14190465 44 18336823074577052925
14294032 229 18338254728900680980
14394314 77 17618513515589478757
14395042 24 18187930642324558101
14790565 3 18049448033442953445
15400415 2 17976265634705014989
15439362 3 18123748656634030244
19309040 13 18059285444874715076
19427546 62 18049165458685693621
20238998 120 18194403527617411343
23845131 108 18193558857484026109
24771293 8 18127703836151030955
27425 322 17908984301971085317
469060 322 18266194995910524210
550186 72 18265899249300781597
57527585 21 18269534161279665167
6004065 56 17976261562775526063
653340 110 18410019840245178567
9555976 147 18191279677237576986
9777508 108 18337114441401685095
9849439 229 18338796689486291428
9896288 288 18408602587053135962
9961470 85 18268707200098131368

> <PUBCHEM_SHAPE_MULTIPOLES>
651.79
16.98
9.14
1.35
16.63
7.82
0.79
16.53
7.63
-22.03
1.12
1.11
0.38
1.78

> <PUBCHEM_SHAPE_SELFOVERLAP>
1393.544

> <PUBCHEM_SHAPE_VOLUME>
363.9

> <PUBCHEM_COORDINATE_TYPE>
2
5
10

> <minimizedAffinity>
-6.15392

> <CNNscore>
0.1048522890

> <CNNaffinity>
5.4461150169

> <CNN_VS>
0.5710376501

> <CNNaffinity_variance>
0.3908669651

$$$$
