121269225


 43 47  0  0  0  0  0  0  0  0999 V2000
   -5.4585   -9.6052  -12.0163 N   0  0  0  0  0  0  0  0  0  0  0  0
   -5.6619   -8.7383  -11.5280 H   0  0  0  0  0  0  0  0  0  0  0  0
   -5.7630  -11.5203  -10.7027 N   0  0  0  0  0  0  0  0  0  0  0  0
   -7.5111  -10.7251  -12.1585 N   0  0  0  0  0  0  0  0  0  0  0  0
   -6.2843  -10.6682  -11.6059 C   0  0  0  0  0  0  0  0  0  0  0  0
   -6.5809  -12.5272  -10.3319 C   0  0  0  0  0  0  0  0  0  0  0  0
   -7.8594  -12.6970  -10.8230 C   0  0  0  0  0  0  0  0  0  0  0  0
   -8.2755  -11.7562  -11.7429 C   0  0  0  0  0  0  0  0  0  0  0  0
   -6.1067  -13.4411   -9.4036 N   0  0  0  0  0  0  0  0  0  0  0  0
   -4.7880  -13.6724   -9.2873 N   0  0  0  0  0  0  0  0  0  0  0  0
   -5.9940  -14.9387   -7.8177 C   0  0  0  0  0  0  0  0  0  0  0  0
   -4.7253  -14.5883   -8.3169 C   0  0  0  0  0  0  0  0  0  0  0  0
   -6.8728  -14.1744   -8.5459 C   0  0  0  0  0  0  0  0  0  0  0  0
   -3.4502  -15.1056   -7.8913 C   0  0  0  0  0  0  0  0  0  0  0  0
   -2.2855  -14.3796   -8.1403 C   0  0  0  0  0  0  0  0  0  0  0  0
   -3.3795  -16.3320   -7.2309 C   0  0  0  0  0  0  0  0  0  0  0  0
   -1.0501  -14.8801   -7.7288 C   0  0  0  0  0  0  0  0  0  0  0  0
   -2.1445  -16.8327   -6.8194 C   0  0  0  0  0  0  0  0  0  0  0  0
   -0.9797  -16.1066   -7.0684 C   0  0  0  0  0  0  0  0  0  0  0  0
   -6.3266  -15.9043   -6.7558 C   0  0  0  0  0  0  0  0  0  0  0  0
   -6.7652  -15.2596   -5.5086 N   0  0  0  0  0  0  0  0  0  0  0  0
   -7.8361  -14.3071   -5.7847 C   0  0  0  0  0  0  0  0  0  0  0  0
   -5.6371  -14.5972   -4.8613 C   0  0  0  0  0  0  0  0  0  0  0  0
   -2.6837   -9.2339  -15.1497 C   0  0  0  0  0  0  0  0  0  0  0  0
   -3.2748  -10.4680  -14.8786 C   0  0  0  0  0  0  0  0  0  0  0  0
   -3.0130   -8.1187  -14.3792 C   0  0  0  0  0  0  0  0  0  0  0  0
   -3.9333   -8.2376  -13.3377 C   0  0  0  0  0  0  0  0  0  0  0  0
   -4.1951  -10.5868  -13.8371 C   0  0  0  0  0  0  0  0  0  0  0  0
   -4.5243   -9.4717  -13.0668 C   0  0  0  0  0  0  0  0  0  0  0  0
   -0.0053   -9.0435  -18.3852 O   0  0  0  0  0  0  0  0  0  0  0  0
   -1.7601   -9.0914  -16.1904 N   0  0  0  0  0  0  0  0  0  0  0  0
   -2.2744   -8.8633  -17.5478 C   0  0  0  0  0  0  0  0  0  0  0  0
   -0.4667   -9.7800  -16.1202 C   0  0  0  0  0  0  0  0  0  0  0  0
   -1.1850   -8.2403  -18.4132 C   0  0  0  0  0  0  0  0  0  0  0  0
    0.5264   -9.1088  -17.0624 C   0  0  0  0  0  0  0  0  0  0  0  0
   -3.6633  -13.3842  -14.2760 O   0  0  0  0  0  0  0  0  0  0  0  0
   -2.9603  -11.5989  -15.6379 N   0  0  0  0  0  0  0  0  0  0  0  0
   -3.1653  -12.9432  -15.3052 C   0  0  0  0  0  0  0  0  0  0  0  0
   -2.5330  -11.3983  -16.5399 H   0  0  0  0  0  0  0  0  0  0  0  0
   -2.6915  -13.8542  -16.3873 C   0  0  0  0  0  0  0  0  0  0  0  0
   -1.8288  -14.8390  -16.1178 C   0  0  0  0  0  0  0  0  0  0  0  0
   -4.2425   -7.1359  -12.5973 O   0  0  0  0  0  0  0  0  0  0  0  0
   -4.5490   -5.9408  -13.3122 C   0  0  0  0  0  0  0  0  0  0  0  0
 30 34  1  0
 30 35  1  0
 42 27  1  0
 42 43  1  0
 36 38  2  0
 31 32  1  0
 31 33  1  0
 31 24  1  0
 37 25  1  0
 37 38  1  0
 37 39  1  0
  1 29  1  0
  1  5  1  0
  1  2  1  0
  9 10  1  0
  9 13  1  0
  9  6  1  0
 21 20  1  0
 21 22  1  0
 21 23  1  0
 10 12  2  0
  3  5  2  0
  3  6  1  0
  4  5  1  0
  4  8  2  0
 32 34  1  0
 33 35  1  0
 24 25  2  0
 24 26  1  0
 25 28  1  0
 26 27  2  0
 27 29  1  0
 28 29  2  0
 11 20  1  0
 11 12  1  0
 11 13  2  0
 12 14  1  0
  6  7  2  0
 14 15  2  0
 14 16  1  0
 38 40  1  0
  7  8  1  0
 15 17  1  0
 16 18  2  0
 40 41  2  0
 17 19  2  0
 18 19  1  0
M  END
> <PUBCHEM_COMPOUND_CID>
121269225

> <PUBCHEM_CONFORMER_RMSD>
1.2

> <PUBCHEM_CONFORMER_DIVERSEORDER>
1
31
30
33
22
2
39
40
42
24
12
19
13
34
32
21
11
18
5
17
38
16
37
14
6
10
23
41
20
8
26
9
35
27
3
25
7
29
36
15
28
4

> <PUBCHEM_MMFF94_PARTIAL_CHARGES>
56
1 -0.56
10 -0.62
11 -0.62
12 0.37
13 0.37
14 0.1
15 0.28
16 0.28
17 0.12
18 -0.15
19 0.08
2 -0.36
20 -0.15
21 0.1
22 -0.18
23 0.45
24 0.23
25 -0.3
26 0.72
27 0.29
28 0.05
29 0.62
3 -0.57
30 0.27
31 0.27
32 -0.15
33 0.28
34 -0.15
35 -0.15
36 0.16
37 -0.14
38 -0.15
39 -0.15
4 -0.84
40 -0.15
41 -0.3
5 -0.55
50 0.15
51 0.15
52 0.37
53 0.4
56 0.15
6 -0.6
63 0.15
67 0.15
68 0.15
69 0.15
7 0.59
70 0.15
71 0.15
72 0.15
73 0.15
74 0.15
75 0.15
8 -0.81
9 -0.71

> <PUBCHEM_EFFECTIVE_ROTOR_COUNT>
12.2

> <PUBCHEM_PHARMACOPHORE_FEATURES>
15
1 1 acceptor
1 2 acceptor
1 3 acceptor
1 4 cation
1 41 hydrophobe
1 5 donor
1 6 donor
1 8 cation
1 9 acceptor
4 6 10 11 26 cation
5 7 9 22 24 25 rings
6 1 4 12 13 15 16 rings
6 10 11 26 27 32 36 rings
6 14 17 18 19 20 21 rings
6 28 34 35 38 39 40 rings

> <PUBCHEM_HEAVY_ATOM_COUNT>
41

> <PUBCHEM_ATOM_DEF_STEREO_COUNT>
0

> <PUBCHEM_ATOM_UDEF_STEREO_COUNT>
0

> <PUBCHEM_BOND_DEF_STEREO_COUNT>
0

> <PUBCHEM_BOND_UDEF_STEREO_COUNT>
0

> <PUBCHEM_ISOTOPIC_ATOM_COUNT>
0

> <PUBCHEM_COMPONENT_COUNT>
1

> <PUBCHEM_CACTVS_TAUTO_COUNT>
21

> <PUBCHEM_CONFORMER_ID>
073A6BE900000001

> <PUBCHEM_MMFF94_ENERGY>
152.827

> <PUBCHEM_FEATURE_SELFOVERLAP>
76.123

> <PUBCHEM_SHAPE_FINGERPRINT>
10462674 296 18055900229362274326
117089 54 18263092144354338331
11963148 33 18115585942575997050
12107698 1 18337393841724322403
12559416 138 18339348712874340727
13560911 23 18408602557088241267
14279260 333 18187357693993441490
14394314 77 18337110056029612200
15001296 14 18265896865773273624
15021287 119 18341047531706515807
15064986 96 18059864904782135415
15444296 121 18408895039955283246
16110190 28 18341895182268168492
19311894 1 18339911736691467118
19319366 153 17760935438911142901
19611394 137 18261683687065550115
19841028 212 18117559742109845515
208703 8 18336543905992583145
21033648 29 17631719491893857602
25019877 29 17275108357344291455
25222932 49 18408041814642871966
3383291 50 18337952393284008379
4461854 278 18130515235522043406
44880168 125 17560794378212456590
9896288 288 18270402668086312625

> <PUBCHEM_SHAPE_MULTIPOLES>
786.3
19.57
6.26
1.77
11.23
3.91
0.4
-14.21
5.68
-4.91
-0.06
-0.46
-1.67
-2

> <PUBCHEM_SHAPE_SELFOVERLAP>
1697.64

> <PUBCHEM_SHAPE_VOLUME>
430.8

> <PUBCHEM_COORDINATE_TYPE>
2
5
10

> <minimizedAffinity>
-6.32303

> <CNNscore>
0.2163220495

> <CNNaffinity>
5.6046872139

> <CNN_VS>
1.2124174833

> <CNNaffinity_variance>
0.7610440254

$$$$
121269225


 43 47  0  0  0  0  0  0  0  0999 V2000
    1.6111    4.9675    8.0891 N   0  0  0  0  0  0  0  0  0  0  0  0
    1.2195    5.3738    7.2447 H   0  0  0  0  0  0  0  0  0  0  0  0
    3.8892    5.2686    8.5420 N   0  0  0  0  0  0  0  0  0  0  0  0
    2.2619    6.9086    9.2275 N   0  0  0  0  0  0  0  0  0  0  0  0
    2.6371    5.7530    8.6464 C   0  0  0  0  0  0  0  0  0  0  0  0
    4.8477    6.0462    9.0870 C   0  0  0  0  0  0  0  0  0  0  0  0
    4.5949    7.2513    9.7103 C   0  0  0  0  0  0  0  0  0  0  0  0
    3.2702    7.6360    9.7513 C   0  0  0  0  0  0  0  0  0  0  0  0
    6.1604    5.6066    9.0141 N   0  0  0  0  0  0  0  0  0  0  0  0
    7.1329    6.4321    8.5910 N   0  0  0  0  0  0  0  0  0  0  0  0
    7.9560    4.3675    9.1181 C   0  0  0  0  0  0  0  0  0  0  0  0
    8.2276    5.6694    8.6567 C   0  0  0  0  0  0  0  0  0  0  0  0
    6.6009    4.3582    9.3421 C   0  0  0  0  0  0  0  0  0  0  0  0
    9.5083    6.2073    8.2755 C   0  0  0  0  0  0  0  0  0  0  0  0
   10.3969    6.6512    9.2547 C   0  0  0  0  0  0  0  0  0  0  0  0
    9.8599    6.2847    6.9280 C   0  0  0  0  0  0  0  0  0  0  0  0
   11.6372    7.1727    8.8863 C   0  0  0  0  0  0  0  0  0  0  0  0
   11.1000    6.8061    6.5595 C   0  0  0  0  0  0  0  0  0  0  0  0
   11.9887    7.2501    7.5388 C   0  0  0  0  0  0  0  0  0  0  0  0
    8.8969    3.2520    9.3214 C   0  0  0  0  0  0  0  0  0  0  0  0
    9.7719    3.4428   10.4882 N   0  0  0  0  0  0  0  0  0  0  0  0
   10.8027    2.4099   10.5178 C   0  0  0  0  0  0  0  0  0  0  0  0
    8.9836    3.4231   11.7164 C   0  0  0  0  0  0  0  0  0  0  0  0
   -0.4423    1.5605    9.4426 C   0  0  0  0  0  0  0  0  0  0  0  0
   -0.7110    2.0856    8.1784 C   0  0  0  0  0  0  0  0  0  0  0  0
    0.5101    2.1671   10.2615 C   0  0  0  0  0  0  0  0  0  0  0  0
    1.1938    3.2986    9.8164 C   0  0  0  0  0  0  0  0  0  0  0  0
   -0.0273    3.2171    7.7333 C   0  0  0  0  0  0  0  0  0  0  0  0
    0.9250    3.8234    8.5522 C   0  0  0  0  0  0  0  0  0  0  0  0
   -2.2953   -1.8468   11.0658 O   0  0  0  0  0  0  0  0  0  0  0  0
   -1.1142    0.4257    9.9082 N   0  0  0  0  0  0  0  0  0  0  0  0
   -1.9124    0.5471   11.1360 C   0  0  0  0  0  0  0  0  0  0  0  0
   -0.5607   -0.9086    9.6527 C   0  0  0  0  0  0  0  0  0  0  0  0
   -2.9380   -0.5790   11.1968 C   0  0  0  0  0  0  0  0  0  0  0  0
   -1.6581   -1.9576    9.7935 C   0  0  0  0  0  0  0  0  0  0  0  0
   -3.6403    2.6593    7.8499 O   0  0  0  0  0  0  0  0  0  0  0  0
   -1.6608    1.4939    7.3405 N   0  0  0  0  0  0  0  0  0  0  0  0
   -3.0215    1.8036    7.2284 C   0  0  0  0  0  0  0  0  0  0  0  0
   -1.2977    0.7512    6.7464 H   0  0  0  0  0  0  0  0  0  0  0  0
   -3.6984    0.9411    6.2168 C   0  0  0  0  0  0  0  0  0  0  0  0
   -4.6192    0.0477    6.5920 C   0  0  0  0  0  0  0  0  0  0  0  0
    2.1215    3.8760   10.6311 O   0  0  0  0  0  0  0  0  0  0  0  0
    3.0504    3.0053   11.2731 C   0  0  0  0  0  0  0  0  0  0  0  0
 30 34  1  0
 30 35  1  0
 42 27  1  0
 42 43  1  0
 36 38  2  0
 31 32  1  0
 31 33  1  0
 31 24  1  0
 37 25  1  0
 37 38  1  0
 37 39  1  0
  1 29  1  0
  1  5  1  0
  1  2  1  0
  9 10  1  0
  9 13  1  0
  9  6  1  0
 21 20  1  0
 21 22  1  0
 21 23  1  0
 10 12  2  0
  3  5  2  0
  3  6  1  0
  4  5  1  0
  4  8  2  0
 32 34  1  0
 33 35  1  0
 24 25  2  0
 24 26  1  0
 25 28  1  0
 26 27  2  0
 27 29  1  0
 28 29  2  0
 11 20  1  0
 11 12  1  0
 11 13  2  0
 12 14  1  0
  6  7  2  0
 14 15  2  0
 14 16  1  0
 38 40  1  0
  7  8  1  0
 15 17  1  0
 16 18  2  0
 40 41  2  0
 17 19  2  0
 18 19  1  0
M  END
> <PUBCHEM_COMPOUND_CID>
121269225

> <PUBCHEM_CONFORMER_RMSD>
1.2

> <PUBCHEM_CONFORMER_DIVERSEORDER>
1
31
30
33
22
2
39
40
42
24
12
19
13
34
32
21
11
18
5
17
38
16
37
14
6
10
23
41
20
8
26
9
35
27
3
25
7
29
36
15
28
4

> <PUBCHEM_MMFF94_PARTIAL_CHARGES>
56
1 -0.56
10 -0.62
11 -0.62
12 0.37
13 0.37
14 0.1
15 0.28
16 0.28
17 0.12
18 -0.15
19 0.08
2 -0.36
20 -0.15
21 0.1
22 -0.18
23 0.45
24 0.23
25 -0.3
26 0.72
27 0.29
28 0.05
29 0.62
3 -0.57
30 0.27
31 0.27
32 -0.15
33 0.28
34 -0.15
35 -0.15
36 0.16
37 -0.14
38 -0.15
39 -0.15
4 -0.84
40 -0.15
41 -0.3
5 -0.55
50 0.15
51 0.15
52 0.37
53 0.4
56 0.15
6 -0.6
63 0.15
67 0.15
68 0.15
69 0.15
7 0.59
70 0.15
71 0.15
72 0.15
73 0.15
74 0.15
75 0.15
8 -0.81
9 -0.71

> <PUBCHEM_EFFECTIVE_ROTOR_COUNT>
12.2

> <PUBCHEM_PHARMACOPHORE_FEATURES>
15
1 1 acceptor
1 2 acceptor
1 3 acceptor
1 4 cation
1 41 hydrophobe
1 5 donor
1 6 donor
1 8 cation
1 9 acceptor
4 6 10 11 26 cation
5 7 9 22 24 25 rings
6 1 4 12 13 15 16 rings
6 10 11 26 27 32 36 rings
6 14 17 18 19 20 21 rings
6 28 34 35 38 39 40 rings

> <PUBCHEM_HEAVY_ATOM_COUNT>
41

> <PUBCHEM_ATOM_DEF_STEREO_COUNT>
0

> <PUBCHEM_ATOM_UDEF_STEREO_COUNT>
0

> <PUBCHEM_BOND_DEF_STEREO_COUNT>
0

> <PUBCHEM_BOND_UDEF_STEREO_COUNT>
0

> <PUBCHEM_ISOTOPIC_ATOM_COUNT>
0

> <PUBCHEM_COMPONENT_COUNT>
1

> <PUBCHEM_CACTVS_TAUTO_COUNT>
21

> <PUBCHEM_CONFORMER_ID>
073A6BE900000001

> <PUBCHEM_MMFF94_ENERGY>
152.827

> <PUBCHEM_FEATURE_SELFOVERLAP>
76.123

> <PUBCHEM_SHAPE_FINGERPRINT>
10462674 296 18055900229362274326
117089 54 18263092144354338331
11963148 33 18115585942575997050
12107698 1 18337393841724322403
12559416 138 18339348712874340727
13560911 23 18408602557088241267
14279260 333 18187357693993441490
14394314 77 18337110056029612200
15001296 14 18265896865773273624
15021287 119 18341047531706515807
15064986 96 18059864904782135415
15444296 121 18408895039955283246
16110190 28 18341895182268168492
19311894 1 18339911736691467118
19319366 153 17760935438911142901
19611394 137 18261683687065550115
19841028 212 18117559742109845515
208703 8 18336543905992583145
21033648 29 17631719491893857602
25019877 29 17275108357344291455
25222932 49 18408041814642871966
3383291 50 18337952393284008379
4461854 278 18130515235522043406
44880168 125 17560794378212456590
9896288 288 18270402668086312625

> <PUBCHEM_SHAPE_MULTIPOLES>
786.3
19.57
6.26
1.77
11.23
3.91
0.4
-14.21
5.68
-4.91
-0.06
-0.46
-1.67
-2

> <PUBCHEM_SHAPE_SELFOVERLAP>
1697.64

> <PUBCHEM_SHAPE_VOLUME>
430.8

> <PUBCHEM_COORDINATE_TYPE>
2
5
10

> <minimizedAffinity>
-7.26930

> <CNNscore>
0.1753776670

> <CNNaffinity>
6.0501446724

> <CNN_VS>
1.0610603094

> <CNNaffinity_variance>
0.4416417181

$$$$
121269225


 43 47  0  0  0  0  0  0  0  0999 V2000
   -1.5458  -15.2992   -8.4978 N   0  0  0  0  0  0  0  0  0  0  0  0
   -1.1902  -14.3704   -8.2924 H   0  0  0  0  0  0  0  0  0  0  0  0
   -0.8793  -15.5840  -10.7250 N   0  0  0  0  0  0  0  0  0  0  0  0
    0.0223  -16.9730   -8.9742 N   0  0  0  0  0  0  0  0  0  0  0  0
   -0.7629  -15.9852   -9.4448 C   0  0  0  0  0  0  0  0  0  0  0  0
   -0.1157  -16.2629  -11.6060 C   0  0  0  0  0  0  0  0  0  0  0  0
    0.7303  -17.2943  -11.2521 C   0  0  0  0  0  0  0  0  0  0  0  0
    0.7585  -17.6092   -9.9088 C   0  0  0  0  0  0  0  0  0  0  0  0
   -0.1868  -15.9003  -12.9421 N   0  0  0  0  0  0  0  0  0  0  0  0
   -0.0488  -14.6144  -13.3075 N   0  0  0  0  0  0  0  0  0  0  0  0
   -0.3904  -15.9677  -15.1157 C   0  0  0  0  0  0  0  0  0  0  0  0
   -0.1742  -14.6618  -14.6366 C   0  0  0  0  0  0  0  0  0  0  0  0
   -0.3935  -16.7514  -13.9877 C   0  0  0  0  0  0  0  0  0  0  0  0
   -0.0835  -13.4537  -15.4156 C   0  0  0  0  0  0  0  0  0  0  0  0
    1.0208  -13.2373  -16.2397 C   0  0  0  0  0  0  0  0  0  0  0  0
   -1.0990  -12.5002  -15.3460 C   0  0  0  0  0  0  0  0  0  0  0  0
    1.1096  -12.0674  -16.9942 C   0  0  0  0  0  0  0  0  0  0  0  0
   -1.0105  -11.3303  -16.1002 C   0  0  0  0  0  0  0  0  0  0  0  0
    0.0940  -11.1139  -16.9244 C   0  0  0  0  0  0  0  0  0  0  0  0
   -0.5748  -16.4147  -16.5075 C   0  0  0  0  0  0  0  0  0  0  0  0
    0.6591  -16.9406  -17.1112 N   0  0  0  0  0  0  0  0  0  0  0  0
    0.4633  -18.3250  -17.5303 C   0  0  0  0  0  0  0  0  0  0  0  0
    1.7654  -16.8375  -16.1649 C   0  0  0  0  0  0  0  0  0  0  0  0
   -4.7287  -16.5145   -6.0384 C   0  0  0  0  0  0  0  0  0  0  0  0
   -3.5079  -17.1877   -5.9899 C   0  0  0  0  0  0  0  0  0  0  0  0
   -4.8955  -15.4348   -6.9057 C   0  0  0  0  0  0  0  0  0  0  0  0
   -3.8417  -15.0283   -7.7243 C   0  0  0  0  0  0  0  0  0  0  0  0
   -2.4541  -16.7812   -6.8084 C   0  0  0  0  0  0  0  0  0  0  0  0
   -2.6210  -15.7016   -7.6755 C   0  0  0  0  0  0  0  0  0  0  0  0
   -8.1146  -17.5630   -3.7769 O   0  0  0  0  0  0  0  0  0  0  0  0
   -5.7979  -16.9036   -5.2251 N   0  0  0  0  0  0  0  0  0  0  0  0
   -6.7503  -17.8887   -5.7556 C   0  0  0  0  0  0  0  0  0  0  0  0
   -6.3534  -15.9620   -4.2468 C   0  0  0  0  0  0  0  0  0  0  0  0
   -7.5011  -18.5502   -4.6056 C   0  0  0  0  0  0  0  0  0  0  0  0
   -7.1262  -16.7260   -3.1774 C   0  0  0  0  0  0  0  0  0  0  0  0
   -1.6972  -17.4878   -3.6130 O   0  0  0  0  0  0  0  0  0  0  0  0
   -3.3177  -18.2719   -5.1280 N   0  0  0  0  0  0  0  0  0  0  0  0
   -2.4547  -18.3566   -4.0289 C   0  0  0  0  0  0  0  0  0  0  0  0
   -3.8871  -19.0882   -5.3420 H   0  0  0  0  0  0  0  0  0  0  0  0
   -2.5440  -19.6886   -3.3632 C   0  0  0  0  0  0  0  0  0  0  0  0
   -3.6251  -20.4581   -3.5242 C   0  0  0  0  0  0  0  0  0  0  0  0
   -4.0244  -13.9704   -8.5639 O   0  0  0  0  0  0  0  0  0  0  0  0
   -5.3006  -13.8533   -9.1891 C   0  0  0  0  0  0  0  0  0  0  0  0
 30 34  1  0
 30 35  1  0
 42 27  1  0
 42 43  1  0
 36 38  2  0
 31 32  1  0
 31 33  1  0
 31 24  1  0
 37 25  1  0
 37 38  1  0
 37 39  1  0
  1 29  1  0
  1  5  1  0
  1  2  1  0
  9 10  1  0
  9 13  1  0
  9  6  1  0
 21 20  1  0
 21 22  1  0
 21 23  1  0
 10 12  2  0
  3  5  2  0
  3  6  1  0
  4  5  1  0
  4  8  2  0
 32 34  1  0
 33 35  1  0
 24 25  2  0
 24 26  1  0
 25 28  1  0
 26 27  2  0
 27 29  1  0
 28 29  2  0
 11 20  1  0
 11 12  1  0
 11 13  2  0
 12 14  1  0
  6  7  2  0
 14 15  2  0
 14 16  1  0
 38 40  1  0
  7  8  1  0
 15 17  1  0
 16 18  2  0
 40 41  2  0
 17 19  2  0
 18 19  1  0
M  END
> <PUBCHEM_COMPOUND_CID>
121269225

> <PUBCHEM_CONFORMER_RMSD>
1.2

> <PUBCHEM_CONFORMER_DIVERSEORDER>
1
31
30
33
22
2
39
40
42
24
12
19
13
34
32
21
11
18
5
17
38
16
37
14
6
10
23
41
20
8
26
9
35
27
3
25
7
29
36
15
28
4

> <PUBCHEM_MMFF94_PARTIAL_CHARGES>
56
1 -0.56
10 -0.62
11 -0.62
12 0.37
13 0.37
14 0.1
15 0.28
16 0.28
17 0.12
18 -0.15
19 0.08
2 -0.36
20 -0.15
21 0.1
22 -0.18
23 0.45
24 0.23
25 -0.3
26 0.72
27 0.29
28 0.05
29 0.62
3 -0.57
30 0.27
31 0.27
32 -0.15
33 0.28
34 -0.15
35 -0.15
36 0.16
37 -0.14
38 -0.15
39 -0.15
4 -0.84
40 -0.15
41 -0.3
5 -0.55
50 0.15
51 0.15
52 0.37
53 0.4
56 0.15
6 -0.6
63 0.15
67 0.15
68 0.15
69 0.15
7 0.59
70 0.15
71 0.15
72 0.15
73 0.15
74 0.15
75 0.15
8 -0.81
9 -0.71

> <PUBCHEM_EFFECTIVE_ROTOR_COUNT>
12.2

> <PUBCHEM_PHARMACOPHORE_FEATURES>
15
1 1 acceptor
1 2 acceptor
1 3 acceptor
1 4 cation
1 41 hydrophobe
1 5 donor
1 6 donor
1 8 cation
1 9 acceptor
4 6 10 11 26 cation
5 7 9 22 24 25 rings
6 1 4 12 13 15 16 rings
6 10 11 26 27 32 36 rings
6 14 17 18 19 20 21 rings
6 28 34 35 38 39 40 rings

> <PUBCHEM_HEAVY_ATOM_COUNT>
41

> <PUBCHEM_ATOM_DEF_STEREO_COUNT>
0

> <PUBCHEM_ATOM_UDEF_STEREO_COUNT>
0

> <PUBCHEM_BOND_DEF_STEREO_COUNT>
0

> <PUBCHEM_BOND_UDEF_STEREO_COUNT>
0

> <PUBCHEM_ISOTOPIC_ATOM_COUNT>
0

> <PUBCHEM_COMPONENT_COUNT>
1

> <PUBCHEM_CACTVS_TAUTO_COUNT>
21

> <PUBCHEM_CONFORMER_ID>
073A6BE900000001

> <PUBCHEM_MMFF94_ENERGY>
152.827

> <PUBCHEM_FEATURE_SELFOVERLAP>
76.123

> <PUBCHEM_SHAPE_FINGERPRINT>
10462674 296 18055900229362274326
117089 54 18263092144354338331
11963148 33 18115585942575997050
12107698 1 18337393841724322403
12559416 138 18339348712874340727
13560911 23 18408602557088241267
14279260 333 18187357693993441490
14394314 77 18337110056029612200
15001296 14 18265896865773273624
15021287 119 18341047531706515807
15064986 96 18059864904782135415
15444296 121 18408895039955283246
16110190 28 18341895182268168492
19311894 1 18339911736691467118
19319366 153 17760935438911142901
19611394 137 18261683687065550115
19841028 212 18117559742109845515
208703 8 18336543905992583145
21033648 29 17631719491893857602
25019877 29 17275108357344291455
25222932 49 18408041814642871966
3383291 50 18337952393284008379
4461854 278 18130515235522043406
44880168 125 17560794378212456590
9896288 288 18270402668086312625

> <PUBCHEM_SHAPE_MULTIPOLES>
786.3
19.57
6.26
1.77
11.23
3.91
0.4
-14.21
5.68
-4.91
-0.06
-0.46
-1.67
-2

> <PUBCHEM_SHAPE_SELFOVERLAP>
1697.64

> <PUBCHEM_SHAPE_VOLUME>
430.8

> <PUBCHEM_COORDINATE_TYPE>
2
5
10

> <minimizedAffinity>
-6.54330

> <CNNscore>
0.1612618566

> <CNNaffinity>
4.9569797516

> <CNN_VS>
0.7993717790

> <CNNaffinity_variance>
1.3093789816

$$$$
121269225


 43 47  0  0  0  0  0  0  0  0999 V2000
    0.1328    3.2777    7.3182 N   0  0  0  0  0  0  0  0  0  0  0  0
    0.6398    2.8574    6.5451 H   0  0  0  0  0  0  0  0  0  0  0  0
    1.6452    4.9567    7.9341 N   0  0  0  0  0  0  0  0  0  0  0  0
   -0.5673    5.5071    7.1533 N   0  0  0  0  0  0  0  0  0  0  0  0
    0.4173    4.6468    7.4760 C   0  0  0  0  0  0  0  0  0  0  0  0
    1.8840    6.2772    8.0739 C   0  0  0  0  0  0  0  0  0  0  0  0
    0.9604    7.2590    7.7778 C   0  0  0  0  0  0  0  0  0  0  0  0
   -0.2606    6.8107    7.3168 C   0  0  0  0  0  0  0  0  0  0  0  0
    3.1299    6.6663    8.5410 N   0  0  0  0  0  0  0  0  0  0  0  0
    4.2452    6.0722    8.0836 N   0  0  0  0  0  0  0  0  0  0  0  0
    4.7276    7.6868    9.6257 C   0  0  0  0  0  0  0  0  0  0  0  0
    5.2181    6.6998    8.7499 C   0  0  0  0  0  0  0  0  0  0  0  0
    3.3641    7.6403    9.4666 C   0  0  0  0  0  0  0  0  0  0  0  0
    6.5950    6.3382    8.5309 C   0  0  0  0  0  0  0  0  0  0  0  0
    7.2809    5.5936    9.4904 C   0  0  0  0  0  0  0  0  0  0  0  0
    7.2428    6.7327    7.3604 C   0  0  0  0  0  0  0  0  0  0  0  0
    8.6146    5.2434    9.2793 C   0  0  0  0  0  0  0  0  0  0  0  0
    8.5763    6.3827    7.1491 C   0  0  0  0  0  0  0  0  0  0  0  0
    9.2622    5.6379    8.1087 C   0  0  0  0  0  0  0  0  0  0  0  0
    5.4870    8.5783   10.5197 C   0  0  0  0  0  0  0  0  0  0  0  0
    5.3103   10.0026   10.1977 N   0  0  0  0  0  0  0  0  0  0  0  0
    4.1014   10.5158   10.8345 C   0  0  0  0  0  0  0  0  0  0  0  0
    5.2521   10.1876    8.7511 C   0  0  0  0  0  0  0  0  0  0  0  0
   -2.7246    0.7488    9.0778 C   0  0  0  0  0  0  0  0  0  0  0  0
   -3.0949    1.6203    8.0534 C   0  0  0  0  0  0  0  0  0  0  0  0
   -1.4024    0.7157    9.5211 C   0  0  0  0  0  0  0  0  0  0  0  0
   -0.4507    1.5538    8.9402 C   0  0  0  0  0  0  0  0  0  0  0  0
   -2.1432    2.4584    7.4725 C   0  0  0  0  0  0  0  0  0  0  0  0
   -0.8213    2.4251    7.9158 C   0  0  0  0  0  0  0  0  0  0  0  0
   -5.7171   -1.7456   10.6595 O   0  0  0  0  0  0  0  0  0  0  0  0
   -3.6618   -0.1018    9.6730 N   0  0  0  0  0  0  0  0  0  0  0  0
   -4.0495   -1.3210    8.9502 C   0  0  0  0  0  0  0  0  0  0  0  0
   -4.6892    0.4499   10.5630 C   0  0  0  0  0  0  0  0  0  0  0  0
   -4.6419   -2.3315    9.9257 C   0  0  0  0  0  0  0  0  0  0  0  0
   -5.2483   -0.6552   11.4522 C   0  0  0  0  0  0  0  0  0  0  0  0
   -4.5252    3.7391    6.4777 O   0  0  0  0  0  0  0  0  0  0  0  0
   -4.4139    1.6701    7.5927 N   0  0  0  0  0  0  0  0  0  0  0  0
   -5.0308    2.6896    6.8579 C   0  0  0  0  0  0  0  0  0  0  0  0
   -4.9765    0.8554    7.8293 H   0  0  0  0  0  0  0  0  0  0  0  0
   -6.4555    2.3642    6.5581 C   0  0  0  0  0  0  0  0  0  0  0  0
   -6.7984    1.8331    5.3804 C   0  0  0  0  0  0  0  0  0  0  0  0
    0.8361    1.5055    9.3867 O   0  0  0  0  0  0  0  0  0  0  0  0
    1.2143    0.3610   10.1484 C   0  0  0  0  0  0  0  0  0  0  0  0
 30 34  1  0
 30 35  1  0
 42 27  1  0
 42 43  1  0
 36 38  2  0
 31 32  1  0
 31 33  1  0
 31 24  1  0
 37 25  1  0
 37 38  1  0
 37 39  1  0
  1 29  1  0
  1  5  1  0
  1  2  1  0
  9 10  1  0
  9 13  1  0
  9  6  1  0
 21 20  1  0
 21 22  1  0
 21 23  1  0
 10 12  2  0
  3  5  2  0
  3  6  1  0
  4  5  1  0
  4  8  2  0
 32 34  1  0
 33 35  1  0
 24 25  2  0
 24 26  1  0
 25 28  1  0
 26 27  2  0
 27 29  1  0
 28 29  2  0
 11 20  1  0
 11 12  1  0
 11 13  2  0
 12 14  1  0
  6  7  2  0
 14 15  2  0
 14 16  1  0
 38 40  1  0
  7  8  1  0
 15 17  1  0
 16 18  2  0
 40 41  2  0
 17 19  2  0
 18 19  1  0
M  END
> <PUBCHEM_COMPOUND_CID>
121269225

> <PUBCHEM_CONFORMER_RMSD>
1.2

> <PUBCHEM_CONFORMER_DIVERSEORDER>
1
31
30
33
22
2
39
40
42
24
12
19
13
34
32
21
11
18
5
17
38
16
37
14
6
10
23
41
20
8
26
9
35
27
3
25
7
29
36
15
28
4

> <PUBCHEM_MMFF94_PARTIAL_CHARGES>
56
1 -0.56
10 -0.62
11 -0.62
12 0.37
13 0.37
14 0.1
15 0.28
16 0.28
17 0.12
18 -0.15
19 0.08
2 -0.36
20 -0.15
21 0.1
22 -0.18
23 0.45
24 0.23
25 -0.3
26 0.72
27 0.29
28 0.05
29 0.62
3 -0.57
30 0.27
31 0.27
32 -0.15
33 0.28
34 -0.15
35 -0.15
36 0.16
37 -0.14
38 -0.15
39 -0.15
4 -0.84
40 -0.15
41 -0.3
5 -0.55
50 0.15
51 0.15
52 0.37
53 0.4
56 0.15
6 -0.6
63 0.15
67 0.15
68 0.15
69 0.15
7 0.59
70 0.15
71 0.15
72 0.15
73 0.15
74 0.15
75 0.15
8 -0.81
9 -0.71

> <PUBCHEM_EFFECTIVE_ROTOR_COUNT>
12.2

> <PUBCHEM_PHARMACOPHORE_FEATURES>
15
1 1 acceptor
1 2 acceptor
1 3 acceptor
1 4 cation
1 41 hydrophobe
1 5 donor
1 6 donor
1 8 cation
1 9 acceptor
4 6 10 11 26 cation
5 7 9 22 24 25 rings
6 1 4 12 13 15 16 rings
6 10 11 26 27 32 36 rings
6 14 17 18 19 20 21 rings
6 28 34 35 38 39 40 rings

> <PUBCHEM_HEAVY_ATOM_COUNT>
41

> <PUBCHEM_ATOM_DEF_STEREO_COUNT>
0

> <PUBCHEM_ATOM_UDEF_STEREO_COUNT>
0

> <PUBCHEM_BOND_DEF_STEREO_COUNT>
0

> <PUBCHEM_BOND_UDEF_STEREO_COUNT>
0

> <PUBCHEM_ISOTOPIC_ATOM_COUNT>
0

> <PUBCHEM_COMPONENT_COUNT>
1

> <PUBCHEM_CACTVS_TAUTO_COUNT>
21

> <PUBCHEM_CONFORMER_ID>
073A6BE900000001

> <PUBCHEM_MMFF94_ENERGY>
152.827

> <PUBCHEM_FEATURE_SELFOVERLAP>
76.123

> <PUBCHEM_SHAPE_FINGERPRINT>
10462674 296 18055900229362274326
117089 54 18263092144354338331
11963148 33 18115585942575997050
12107698 1 18337393841724322403
12559416 138 18339348712874340727
13560911 23 18408602557088241267
14279260 333 18187357693993441490
14394314 77 18337110056029612200
15001296 14 18265896865773273624
15021287 119 18341047531706515807
15064986 96 18059864904782135415
15444296 121 18408895039955283246
16110190 28 18341895182268168492
19311894 1 18339911736691467118
19319366 153 17760935438911142901
19611394 137 18261683687065550115
19841028 212 18117559742109845515
208703 8 18336543905992583145
21033648 29 17631719491893857602
25019877 29 17275108357344291455
25222932 49 18408041814642871966
3383291 50 18337952393284008379
4461854 278 18130515235522043406
44880168 125 17560794378212456590
9896288 288 18270402668086312625

> <PUBCHEM_SHAPE_MULTIPOLES>
786.3
19.57
6.26
1.77
11.23
3.91
0.4
-14.21
5.68
-4.91
-0.06
-0.46
-1.67
-2

> <PUBCHEM_SHAPE_SELFOVERLAP>
1697.64

> <PUBCHEM_SHAPE_VOLUME>
430.8

> <PUBCHEM_COORDINATE_TYPE>
2
5
10

> <minimizedAffinity>
-7.78979

> <CNNscore>
0.1508046389

> <CNNaffinity>
5.3290367126

> <CNN_VS>
0.8036434650

> <CNNaffinity_variance>
1.6270946264

$$$$
121269225


 43 47  0  0  0  0  0  0  0  0999 V2000
    1.7237    5.4438    8.6659 N   0  0  0  0  0  0  0  0  0  0  0  0
    1.2656    6.2643    9.0508 H   0  0  0  0  0  0  0  0  0  0  0  0
    4.0344    5.0894    8.5225 N   0  0  0  0  0  0  0  0  0  0  0  0
    2.9278    6.6556    7.0631 N   0  0  0  0  0  0  0  0  0  0  0  0
    2.9548    5.7440    8.0540 C   0  0  0  0  0  0  0  0  0  0  0  0
    5.1976    5.4014    7.9142 C   0  0  0  0  0  0  0  0  0  0  0  0
    5.3043    6.3173    6.8873 C   0  0  0  0  0  0  0  0  0  0  0  0
    4.1248    6.9194    6.4993 C   0  0  0  0  0  0  0  0  0  0  0  0
    6.3492    4.7629    8.3476 N   0  0  0  0  0  0  0  0  0  0  0  0
    6.2879    3.5240    8.8647 N   0  0  0  0  0  0  0  0  0  0  0  0
    8.4310    4.3140    8.8325 C   0  0  0  0  0  0  0  0  0  0  0  0
    7.5628    3.2551    9.1592 C   0  0  0  0  0  0  0  0  0  0  0  0
    7.6101    5.2812    8.3060 C   0  0  0  0  0  0  0  0  0  0  0  0
    7.9184    1.9889    9.7467 C   0  0  0  0  0  0  0  0  0  0  0  0
    7.8112    0.8181    8.9963 C   0  0  0  0  0  0  0  0  0  0  0  0
    8.3691    1.9332   11.0654 C   0  0  0  0  0  0  0  0  0  0  0  0
    8.1549   -0.4086    9.5648 C   0  0  0  0  0  0  0  0  0  0  0  0
    8.7128    0.7068   11.6340 C   0  0  0  0  0  0  0  0  0  0  0  0
    8.6057   -0.4642   10.8835 C   0  0  0  0  0  0  0  0  0  0  0  0
    9.8920    4.3890    9.0078 C   0  0  0  0  0  0  0  0  0  0  0  0
   10.4261    5.7454    8.8118 N   0  0  0  0  0  0  0  0  0  0  0  0
   11.0345    5.8600    7.4901 C   0  0  0  0  0  0  0  0  0  0  0  0
   11.3949    6.0602    9.8571 C   0  0  0  0  0  0  0  0  0  0  0  0
   -0.1845    1.8135    9.5801 C   0  0  0  0  0  0  0  0  0  0  0  0
   -0.4325    2.4496    8.3637 C   0  0  0  0  0  0  0  0  0  0  0  0
    0.6989    2.3828   10.4973 C   0  0  0  0  0  0  0  0  0  0  0  0
    1.3342    3.5881   10.1981 C   0  0  0  0  0  0  0  0  0  0  0  0
    0.2028    3.6549    8.0645 C   0  0  0  0  0  0  0  0  0  0  0  0
    1.0860    4.2240    8.9816 C   0  0  0  0  0  0  0  0  0  0  0  0
   -1.8875   -1.8456   10.7587 O   0  0  0  0  0  0  0  0  0  0  0  0
   -0.8087    0.6034    9.8998 N   0  0  0  0  0  0  0  0  0  0  0  0
   -1.5730    0.5269   11.1525 C   0  0  0  0  0  0  0  0  0  0  0  0
   -0.2241   -0.6635    9.4466 C   0  0  0  0  0  0  0  0  0  0  0  0
   -2.5629   -0.6303   11.0818 C   0  0  0  0  0  0  0  0  0  0  0  0
   -1.2857   -1.7577    9.4676 C   0  0  0  0  0  0  0  0  0  0  0  0
   -3.4289    2.5726    8.2066 O   0  0  0  0  0  0  0  0  0  0  0  0
   -1.3133    1.8972    7.4291 N   0  0  0  0  0  0  0  0  0  0  0  0
   -2.7102    1.9873    7.4051 C   0  0  0  0  0  0  0  0  0  0  0  0
   -0.8638    1.3711    6.6825 H   0  0  0  0  0  0  0  0  0  0  0  0
   -3.2866    1.2577    6.2385 C   0  0  0  0  0  0  0  0  0  0  0  0
   -4.4474    0.6045    6.3509 C   0  0  0  0  0  0  0  0  0  0  0  0
    2.1946    4.1275   11.1071 O   0  0  0  0  0  0  0  0  0  0  0  0
    3.1951    3.2641   11.6428 C   0  0  0  0  0  0  0  0  0  0  0  0
 30 34  1  0
 30 35  1  0
 42 27  1  0
 42 43  1  0
 36 38  2  0
 31 32  1  0
 31 33  1  0
 31 24  1  0
 37 25  1  0
 37 38  1  0
 37 39  1  0
  1 29  1  0
  1  5  1  0
  1  2  1  0
  9 10  1  0
  9 13  1  0
  9  6  1  0
 21 20  1  0
 21 22  1  0
 21 23  1  0
 10 12  2  0
  3  5  2  0
  3  6  1  0
  4  5  1  0
  4  8  2  0
 32 34  1  0
 33 35  1  0
 24 25  2  0
 24 26  1  0
 25 28  1  0
 26 27  2  0
 27 29  1  0
 28 29  2  0
 11 20  1  0
 11 12  1  0
 11 13  2  0
 12 14  1  0
  6  7  2  0
 14 15  2  0
 14 16  1  0
 38 40  1  0
  7  8  1  0
 15 17  1  0
 16 18  2  0
 40 41  2  0
 17 19  2  0
 18 19  1  0
M  END
> <PUBCHEM_COMPOUND_CID>
121269225

> <PUBCHEM_CONFORMER_RMSD>
1.2

> <PUBCHEM_CONFORMER_DIVERSEORDER>
1
31
30
33
22
2
39
40
42
24
12
19
13
34
32
21
11
18
5
17
38
16
37
14
6
10
23
41
20
8
26
9
35
27
3
25
7
29
36
15
28
4

> <PUBCHEM_MMFF94_PARTIAL_CHARGES>
56
1 -0.56
10 -0.62
11 -0.62
12 0.37
13 0.37
14 0.1
15 0.28
16 0.28
17 0.12
18 -0.15
19 0.08
2 -0.36
20 -0.15
21 0.1
22 -0.18
23 0.45
24 0.23
25 -0.3
26 0.72
27 0.29
28 0.05
29 0.62
3 -0.57
30 0.27
31 0.27
32 -0.15
33 0.28
34 -0.15
35 -0.15
36 0.16
37 -0.14
38 -0.15
39 -0.15
4 -0.84
40 -0.15
41 -0.3
5 -0.55
50 0.15
51 0.15
52 0.37
53 0.4
56 0.15
6 -0.6
63 0.15
67 0.15
68 0.15
69 0.15
7 0.59
70 0.15
71 0.15
72 0.15
73 0.15
74 0.15
75 0.15
8 -0.81
9 -0.71

> <PUBCHEM_EFFECTIVE_ROTOR_COUNT>
12.2

> <PUBCHEM_PHARMACOPHORE_FEATURES>
15
1 1 acceptor
1 2 acceptor
1 3 acceptor
1 4 cation
1 41 hydrophobe
1 5 donor
1 6 donor
1 8 cation
1 9 acceptor
4 6 10 11 26 cation
5 7 9 22 24 25 rings
6 1 4 12 13 15 16 rings
6 10 11 26 27 32 36 rings
6 14 17 18 19 20 21 rings
6 28 34 35 38 39 40 rings

> <PUBCHEM_HEAVY_ATOM_COUNT>
41

> <PUBCHEM_ATOM_DEF_STEREO_COUNT>
0

> <PUBCHEM_ATOM_UDEF_STEREO_COUNT>
0

> <PUBCHEM_BOND_DEF_STEREO_COUNT>
0

> <PUBCHEM_BOND_UDEF_STEREO_COUNT>
0

> <PUBCHEM_ISOTOPIC_ATOM_COUNT>
0

> <PUBCHEM_COMPONENT_COUNT>
1

> <PUBCHEM_CACTVS_TAUTO_COUNT>
21

> <PUBCHEM_CONFORMER_ID>
073A6BE900000001

> <PUBCHEM_MMFF94_ENERGY>
152.827

> <PUBCHEM_FEATURE_SELFOVERLAP>
76.123

> <PUBCHEM_SHAPE_FINGERPRINT>
10462674 296 18055900229362274326
117089 54 18263092144354338331
11963148 33 18115585942575997050
12107698 1 18337393841724322403
12559416 138 18339348712874340727
13560911 23 18408602557088241267
14279260 333 18187357693993441490
14394314 77 18337110056029612200
15001296 14 18265896865773273624
15021287 119 18341047531706515807
15064986 96 18059864904782135415
15444296 121 18408895039955283246
16110190 28 18341895182268168492
19311894 1 18339911736691467118
19319366 153 17760935438911142901
19611394 137 18261683687065550115
19841028 212 18117559742109845515
208703 8 18336543905992583145
21033648 29 17631719491893857602
25019877 29 17275108357344291455
25222932 49 18408041814642871966
3383291 50 18337952393284008379
4461854 278 18130515235522043406
44880168 125 17560794378212456590
9896288 288 18270402668086312625

> <PUBCHEM_SHAPE_MULTIPOLES>
786.3
19.57
6.26
1.77
11.23
3.91
0.4
-14.21
5.68
-4.91
-0.06
-0.46
-1.67
-2

> <PUBCHEM_SHAPE_SELFOVERLAP>
1697.64

> <PUBCHEM_SHAPE_VOLUME>
430.8

> <PUBCHEM_COORDINATE_TYPE>
2
5
10

> <minimizedAffinity>
-7.54568

> <CNNscore>
0.1506915092

> <CNNaffinity>
6.0393643379

> <CNN_VS>
0.9100809097

> <CNNaffinity_variance>
0.6773001552

$$$$
121269225


 43 47  0  0  0  0  0  0  0  0999 V2000
   -1.9542  -14.9448   -8.8326 N   0  0  0  0  0  0  0  0  0  0  0  0
   -1.8618  -13.9446   -8.9821 H   0  0  0  0  0  0  0  0  0  0  0  0
   -0.8369  -15.7264  -10.7369 N   0  0  0  0  0  0  0  0  0  0  0  0
   -0.0408  -16.2611   -8.5261 N   0  0  0  0  0  0  0  0  0  0  0  0
   -0.8924  -15.6795   -9.3922 C   0  0  0  0  0  0  0  0  0  0  0  0
    0.1925  -16.4391  -11.2396 C   0  0  0  0  0  0  0  0  0  0  0  0
    1.1329  -17.0819  -10.4604 C   0  0  0  0  0  0  0  0  0  0  0  0
    0.9643  -16.9572   -9.0965 C   0  0  0  0  0  0  0  0  0  0  0  0
    0.3095  -16.5278  -12.6181 N   0  0  0  0  0  0  0  0  0  0  0  0
    1.1642  -17.4030  -13.1745 N   0  0  0  0  0  0  0  0  0  0  0  0
    0.0446  -16.2002  -14.7613 C   0  0  0  0  0  0  0  0  0  0  0  0
    0.9979  -17.1982  -14.4840 C   0  0  0  0  0  0  0  0  0  0  0  0
   -0.3854  -15.7831  -13.5252 C   0  0  0  0  0  0  0  0  0  0  0  0
    1.7572  -17.9645  -15.4385 C   0  0  0  0  0  0  0  0  0  0  0  0
    1.1843  -19.0792  -16.0506 C   0  0  0  0  0  0  0  0  0  0  0  0
    3.0647  -17.5926  -15.7505 C   0  0  0  0  0  0  0  0  0  0  0  0
    1.9191  -19.8222  -16.9748 C   0  0  0  0  0  0  0  0  0  0  0  0
    3.7996  -18.3353  -16.6745 C   0  0  0  0  0  0  0  0  0  0  0  0
    3.2267  -19.4502  -17.2867 C   0  0  0  0  0  0  0  0  0  0  0  0
   -0.4047  -15.7005  -16.0725 C   0  0  0  0  0  0  0  0  0  0  0  0
    0.0644  -14.3363  -16.3597 N   0  0  0  0  0  0  0  0  0  0  0  0
    1.5166  -14.2666  -16.2315 C   0  0  0  0  0  0  0  0  0  0  0  0
   -0.5811  -13.3832  -15.4625 C   0  0  0  0  0  0  0  0  0  0  0  0
   -5.1188  -16.0384   -6.2938 C   0  0  0  0  0  0  0  0  0  0  0  0
   -3.9084  -16.7300   -6.2442 C   0  0  0  0  0  0  0  0  0  0  0  0
   -5.2813  -14.9806   -7.1885 C   0  0  0  0  0  0  0  0  0  0  0  0
   -4.2335  -14.6145   -8.0335 C   0  0  0  0  0  0  0  0  0  0  0  0
   -2.8606  -16.3639   -7.0892 C   0  0  0  0  0  0  0  0  0  0  0  0
   -3.0232  -15.3063   -7.9836 C   0  0  0  0  0  0  0  0  0  0  0  0
   -8.1885  -16.9432   -3.5668 O   0  0  0  0  0  0  0  0  0  0  0  0
   -6.1818  -16.3870   -5.4544 N   0  0  0  0  0  0  0  0  0  0  0  0
   -7.0619  -15.3154   -4.9682 C   0  0  0  0  0  0  0  0  0  0  0  0
   -6.0620  -17.5481   -4.5658 C   0  0  0  0  0  0  0  0  0  0  0  0
   -8.3957  -15.9058   -4.5253 C   0  0  0  0  0  0  0  0  0  0  0  0
   -7.4492  -18.0192   -4.1435 C   0  0  0  0  0  0  0  0  0  0  0  0
   -1.7055  -17.2525   -4.2713 O   0  0  0  0  0  0  0  0  0  0  0  0
   -3.7228  -17.7928   -5.3552 N   0  0  0  0  0  0  0  0  0  0  0  0
   -2.6702  -17.9859   -4.4525 C   0  0  0  0  0  0  0  0  0  0  0  0
   -4.4542  -18.5004   -5.3820 H   0  0  0  0  0  0  0  0  0  0  0  0
   -2.8375  -19.2498   -3.6777 C   0  0  0  0  0  0  0  0  0  0  0  0
   -2.3168  -20.3962   -4.1263 C   0  0  0  0  0  0  0  0  0  0  0  0
   -4.4118  -13.5775   -8.8998 O   0  0  0  0  0  0  0  0  0  0  0  0
   -5.6746  -13.4928   -9.5567 C   0  0  0  0  0  0  0  0  0  0  0  0
 30 34  1  0
 30 35  1  0
 42 27  1  0
 42 43  1  0
 36 38  2  0
 31 32  1  0
 31 33  1  0
 31 24  1  0
 37 25  1  0
 37 38  1  0
 37 39  1  0
  1 29  1  0
  1  5  1  0
  1  2  1  0
  9 10  1  0
  9 13  1  0
  9  6  1  0
 21 20  1  0
 21 22  1  0
 21 23  1  0
 10 12  2  0
  3  5  2  0
  3  6  1  0
  4  5  1  0
  4  8  2  0
 32 34  1  0
 33 35  1  0
 24 25  2  0
 24 26  1  0
 25 28  1  0
 26 27  2  0
 27 29  1  0
 28 29  2  0
 11 20  1  0
 11 12  1  0
 11 13  2  0
 12 14  1  0
  6  7  2  0
 14 15  2  0
 14 16  1  0
 38 40  1  0
  7  8  1  0
 15 17  1  0
 16 18  2  0
 40 41  2  0
 17 19  2  0
 18 19  1  0
M  END
> <PUBCHEM_COMPOUND_CID>
121269225

> <PUBCHEM_CONFORMER_RMSD>
1.2

> <PUBCHEM_CONFORMER_DIVERSEORDER>
1
31
30
33
22
2
39
40
42
24
12
19
13
34
32
21
11
18
5
17
38
16
37
14
6
10
23
41
20
8
26
9
35
27
3
25
7
29
36
15
28
4

> <PUBCHEM_MMFF94_PARTIAL_CHARGES>
56
1 -0.56
10 -0.62
11 -0.62
12 0.37
13 0.37
14 0.1
15 0.28
16 0.28
17 0.12
18 -0.15
19 0.08
2 -0.36
20 -0.15
21 0.1
22 -0.18
23 0.45
24 0.23
25 -0.3
26 0.72
27 0.29
28 0.05
29 0.62
3 -0.57
30 0.27
31 0.27
32 -0.15
33 0.28
34 -0.15
35 -0.15
36 0.16
37 -0.14
38 -0.15
39 -0.15
4 -0.84
40 -0.15
41 -0.3
5 -0.55
50 0.15
51 0.15
52 0.37
53 0.4
56 0.15
6 -0.6
63 0.15
67 0.15
68 0.15
69 0.15
7 0.59
70 0.15
71 0.15
72 0.15
73 0.15
74 0.15
75 0.15
8 -0.81
9 -0.71

> <PUBCHEM_EFFECTIVE_ROTOR_COUNT>
12.2

> <PUBCHEM_PHARMACOPHORE_FEATURES>
15
1 1 acceptor
1 2 acceptor
1 3 acceptor
1 4 cation
1 41 hydrophobe
1 5 donor
1 6 donor
1 8 cation
1 9 acceptor
4 6 10 11 26 cation
5 7 9 22 24 25 rings
6 1 4 12 13 15 16 rings
6 10 11 26 27 32 36 rings
6 14 17 18 19 20 21 rings
6 28 34 35 38 39 40 rings

> <PUBCHEM_HEAVY_ATOM_COUNT>
41

> <PUBCHEM_ATOM_DEF_STEREO_COUNT>
0

> <PUBCHEM_ATOM_UDEF_STEREO_COUNT>
0

> <PUBCHEM_BOND_DEF_STEREO_COUNT>
0

> <PUBCHEM_BOND_UDEF_STEREO_COUNT>
0

> <PUBCHEM_ISOTOPIC_ATOM_COUNT>
0

> <PUBCHEM_COMPONENT_COUNT>
1

> <PUBCHEM_CACTVS_TAUTO_COUNT>
21

> <PUBCHEM_CONFORMER_ID>
073A6BE900000001

> <PUBCHEM_MMFF94_ENERGY>
152.827

> <PUBCHEM_FEATURE_SELFOVERLAP>
76.123

> <PUBCHEM_SHAPE_FINGERPRINT>
10462674 296 18055900229362274326
117089 54 18263092144354338331
11963148 33 18115585942575997050
12107698 1 18337393841724322403
12559416 138 18339348712874340727
13560911 23 18408602557088241267
14279260 333 18187357693993441490
14394314 77 18337110056029612200
15001296 14 18265896865773273624
15021287 119 18341047531706515807
15064986 96 18059864904782135415
15444296 121 18408895039955283246
16110190 28 18341895182268168492
19311894 1 18339911736691467118
19319366 153 17760935438911142901
19611394 137 18261683687065550115
19841028 212 18117559742109845515
208703 8 18336543905992583145
21033648 29 17631719491893857602
25019877 29 17275108357344291455
25222932 49 18408041814642871966
3383291 50 18337952393284008379
4461854 278 18130515235522043406
44880168 125 17560794378212456590
9896288 288 18270402668086312625

> <PUBCHEM_SHAPE_MULTIPOLES>
786.3
19.57
6.26
1.77
11.23
3.91
0.4
-14.21
5.68
-4.91
-0.06
-0.46
-1.67
-2

> <PUBCHEM_SHAPE_SELFOVERLAP>
1697.64

> <PUBCHEM_SHAPE_VOLUME>
430.8

> <PUBCHEM_COORDINATE_TYPE>
2
5
10

> <minimizedAffinity>
-6.44459

> <CNNscore>
0.1386394203

> <CNNaffinity>
4.8676314354

> <CNN_VS>
0.6748455763

> <CNNaffinity_variance>
1.3243317604

$$$$
121269225


 43 47  0  0  0  0  0  0  0  0999 V2000
    7.2956    6.9511    6.9099 N   0  0  0  0  0  0  0  0  0  0  0  0
    7.0001    6.5655    6.0181 H   0  0  0  0  0  0  0  0  0  0  0  0
    5.3439    8.2201    6.6529 N   0  0  0  0  0  0  0  0  0  0  0  0
    6.9443    8.7433    8.3770 N   0  0  0  0  0  0  0  0  0  0  0  0
    6.4889    8.0233    7.3340 C   0  0  0  0  0  0  0  0  0  0  0  0
    4.5953    9.2560    7.0853 C   0  0  0  0  0  0  0  0  0  0  0  0
    4.9495   10.0695    8.1423 C   0  0  0  0  0  0  0  0  0  0  0  0
    6.1466    9.7629    8.7567 C   0  0  0  0  0  0  0  0  0  0  0  0
    3.4023    9.5143    6.4282 N   0  0  0  0  0  0  0  0  0  0  0  0
    2.9475   10.7735    6.3114 N   0  0  0  0  0  0  0  0  0  0  0  0
    1.5323    9.2762    5.3250 C   0  0  0  0  0  0  0  0  0  0  0  0
    1.8047   10.6217    5.6365 C   0  0  0  0  0  0  0  0  0  0  0  0
    2.5914    8.5798    5.8543 C   0  0  0  0  0  0  0  0  0  0  0  0
    1.0011   11.7705    5.3063 C   0  0  0  0  0  0  0  0  0  0  0  0
    0.1823   12.3499    6.2756 C   0  0  0  0  0  0  0  0  0  0  0  0
    1.0409   12.3034    4.0180 C   0  0  0  0  0  0  0  0  0  0  0  0
   -0.5966   13.4622    5.9565 C   0  0  0  0  0  0  0  0  0  0  0  0
    0.2621   13.4156    3.6987 C   0  0  0  0  0  0  0  0  0  0  0  0
   -0.5567   13.9950    4.6681 C   0  0  0  0  0  0  0  0  0  0  0  0
    0.3784    8.7190    4.5976 C   0  0  0  0  0  0  0  0  0  0  0  0
   -0.8834    8.8362    5.3443 N   0  0  0  0  0  0  0  0  0  0  0  0
   -1.2774    7.5342    5.8732 C   0  0  0  0  0  0  0  0  0  0  0  0
   -1.9278    9.3833    4.4840 C   0  0  0  0  0  0  0  0  0  0  0  0
   10.3311    4.7524    8.8093 C   0  0  0  0  0  0  0  0  0  0  0  0
    8.9927    4.4060    8.9950 C   0  0  0  0  0  0  0  0  0  0  0  0
   10.6649    5.8319    7.9913 C   0  0  0  0  0  0  0  0  0  0  0  0
    9.6604    6.5649    7.3592 C   0  0  0  0  0  0  0  0  0  0  0  0
    7.9882    5.1389    8.3630 C   0  0  0  0  0  0  0  0  0  0  0  0
    8.3220    6.2182    7.5452 C   0  0  0  0  0  0  0  0  0  0  0  0
   13.5909    2.7363   10.5377 O   0  0  0  0  0  0  0  0  0  0  0  0
   11.3545    4.0301    9.4314 N   0  0  0  0  0  0  0  0  0  0  0  0
   12.2411    4.7437   10.3608 C   0  0  0  0  0  0  0  0  0  0  0  0
   11.9605    2.8826    8.7471 C   0  0  0  0  0  0  0  0  0  0  0  0
   12.9211    3.7464   11.2919 C   0  0  0  0  0  0  0  0  0  0  0  0
   12.6563    1.9847    9.7641 C   0  0  0  0  0  0  0  0  0  0  0  0
    8.0751    4.3496   11.8539 O   0  0  0  0  0  0  0  0  0  0  0  0
    8.6349    3.3277    9.8097 N   0  0  0  0  0  0  0  0  0  0  0  0
    8.2119    3.3603   11.1439 C   0  0  0  0  0  0  0  0  0  0  0  0
    8.6942    2.4173    9.3580 H   0  0  0  0  0  0  0  0  0  0  0  0
    7.9229    1.9911   11.6609 C   0  0  0  0  0  0  0  0  0  0  0  0
    8.6718    0.9499   11.2843 C   0  0  0  0  0  0  0  0  0  0  0  0
   10.0072    7.6154    6.5632 O   0  0  0  0  0  0  0  0  0  0  0  0
   10.6361    8.7274    7.1966 C   0  0  0  0  0  0  0  0  0  0  0  0
 30 34  1  0
 30 35  1  0
 42 27  1  0
 42 43  1  0
 36 38  2  0
 31 32  1  0
 31 33  1  0
 31 24  1  0
 37 25  1  0
 37 38  1  0
 37 39  1  0
  1 29  1  0
  1  5  1  0
  1  2  1  0
  9 10  1  0
  9 13  1  0
  9  6  1  0
 21 20  1  0
 21 22  1  0
 21 23  1  0
 10 12  2  0
  3  5  2  0
  3  6  1  0
  4  5  1  0
  4  8  2  0
 32 34  1  0
 33 35  1  0
 24 25  2  0
 24 26  1  0
 25 28  1  0
 26 27  2  0
 27 29  1  0
 28 29  2  0
 11 20  1  0
 11 12  1  0
 11 13  2  0
 12 14  1  0
  6  7  2  0
 14 15  2  0
 14 16  1  0
 38 40  1  0
  7  8  1  0
 15 17  1  0
 16 18  2  0
 40 41  2  0
 17 19  2  0
 18 19  1  0
M  END
> <PUBCHEM_COMPOUND_CID>
121269225

> <PUBCHEM_CONFORMER_RMSD>
1.2

> <PUBCHEM_CONFORMER_DIVERSEORDER>
1
31
30
33
22
2
39
40
42
24
12
19
13
34
32
21
11
18
5
17
38
16
37
14
6
10
23
41
20
8
26
9
35
27
3
25
7
29
36
15
28
4

> <PUBCHEM_MMFF94_PARTIAL_CHARGES>
56
1 -0.56
10 -0.62
11 -0.62
12 0.37
13 0.37
14 0.1
15 0.28
16 0.28
17 0.12
18 -0.15
19 0.08
2 -0.36
20 -0.15
21 0.1
22 -0.18
23 0.45
24 0.23
25 -0.3
26 0.72
27 0.29
28 0.05
29 0.62
3 -0.57
30 0.27
31 0.27
32 -0.15
33 0.28
34 -0.15
35 -0.15
36 0.16
37 -0.14
38 -0.15
39 -0.15
4 -0.84
40 -0.15
41 -0.3
5 -0.55
50 0.15
51 0.15
52 0.37
53 0.4
56 0.15
6 -0.6
63 0.15
67 0.15
68 0.15
69 0.15
7 0.59
70 0.15
71 0.15
72 0.15
73 0.15
74 0.15
75 0.15
8 -0.81
9 -0.71

> <PUBCHEM_EFFECTIVE_ROTOR_COUNT>
12.2

> <PUBCHEM_PHARMACOPHORE_FEATURES>
15
1 1 acceptor
1 2 acceptor
1 3 acceptor
1 4 cation
1 41 hydrophobe
1 5 donor
1 6 donor
1 8 cation
1 9 acceptor
4 6 10 11 26 cation
5 7 9 22 24 25 rings
6 1 4 12 13 15 16 rings
6 10 11 26 27 32 36 rings
6 14 17 18 19 20 21 rings
6 28 34 35 38 39 40 rings

> <PUBCHEM_HEAVY_ATOM_COUNT>
41

> <PUBCHEM_ATOM_DEF_STEREO_COUNT>
0

> <PUBCHEM_ATOM_UDEF_STEREO_COUNT>
0

> <PUBCHEM_BOND_DEF_STEREO_COUNT>
0

> <PUBCHEM_BOND_UDEF_STEREO_COUNT>
0

> <PUBCHEM_ISOTOPIC_ATOM_COUNT>
0

> <PUBCHEM_COMPONENT_COUNT>
1

> <PUBCHEM_CACTVS_TAUTO_COUNT>
21

> <PUBCHEM_CONFORMER_ID>
073A6BE900000001

> <PUBCHEM_MMFF94_ENERGY>
152.827

> <PUBCHEM_FEATURE_SELFOVERLAP>
76.123

> <PUBCHEM_SHAPE_FINGERPRINT>
10462674 296 18055900229362274326
117089 54 18263092144354338331
11963148 33 18115585942575997050
12107698 1 18337393841724322403
12559416 138 18339348712874340727
13560911 23 18408602557088241267
14279260 333 18187357693993441490
14394314 77 18337110056029612200
15001296 14 18265896865773273624
15021287 119 18341047531706515807
15064986 96 18059864904782135415
15444296 121 18408895039955283246
16110190 28 18341895182268168492
19311894 1 18339911736691467118
19319366 153 17760935438911142901
19611394 137 18261683687065550115
19841028 212 18117559742109845515
208703 8 18336543905992583145
21033648 29 17631719491893857602
25019877 29 17275108357344291455
25222932 49 18408041814642871966
3383291 50 18337952393284008379
4461854 278 18130515235522043406
44880168 125 17560794378212456590
9896288 288 18270402668086312625

> <PUBCHEM_SHAPE_MULTIPOLES>
786.3
19.57
6.26
1.77
11.23
3.91
0.4
-14.21
5.68
-4.91
-0.06
-0.46
-1.67
-2

> <PUBCHEM_SHAPE_SELFOVERLAP>
1697.64

> <PUBCHEM_SHAPE_VOLUME>
430.8

> <PUBCHEM_COORDINATE_TYPE>
2
5
10

> <minimizedAffinity>
-6.87750

> <CNNscore>
0.1236672997

> <CNNaffinity>
5.5412821770

> <CNN_VS>
0.6852753758

> <CNNaffinity_variance>
0.5998584628

$$$$
121269225


 43 47  0  0  0  0  0  0  0  0999 V2000
    3.4329    7.7095    8.7298 N   0  0  0  0  0  0  0  0  0  0  0  0
    3.1734    8.3909    9.4368 H   0  0  0  0  0  0  0  0  0  0  0  0
    1.9867    5.8776    8.5346 N   0  0  0  0  0  0  0  0  0  0  0  0
    1.6955    7.8380    7.1638 N   0  0  0  0  0  0  0  0  0  0  0  0
    2.3176    7.1129    8.1130 C   0  0  0  0  0  0  0  0  0  0  0  0
    0.9137    5.3354    7.9222 C   0  0  0  0  0  0  0  0  0  0  0  0
    0.1901    5.9740    6.9356 C   0  0  0  0  0  0  0  0  0  0  0  0
    0.6313    7.2359    6.5935 C   0  0  0  0  0  0  0  0  0  0  0  0
    0.5179    4.0645    8.3093 N   0  0  0  0  0  0  0  0  0  0  0  0
    1.0277    3.4999    9.4171 N   0  0  0  0  0  0  0  0  0  0  0  0
   -0.4678    2.1168    8.3835 C   0  0  0  0  0  0  0  0  0  0  0  0
    0.4218    2.3101    9.4573 C   0  0  0  0  0  0  0  0  0  0  0  0
   -0.3825    3.2773    7.6536 C   0  0  0  0  0  0  0  0  0  0  0  0
    0.7102    1.3866   10.5245 C   0  0  0  0  0  0  0  0  0  0  0  0
   -0.1419    1.3068   11.6259 C   0  0  0  0  0  0  0  0  0  0  0  0
    1.8409    0.5729   10.4571 C   0  0  0  0  0  0  0  0  0  0  0  0
    0.1369    0.4131   12.6601 C   0  0  0  0  0  0  0  0  0  0  0  0
    2.1198   -0.3207   11.4911 C   0  0  0  0  0  0  0  0  0  0  0  0
    1.2677   -0.4006   12.5926 C   0  0  0  0  0  0  0  0  0  0  0  0
   -1.3090    0.9434    8.0897 C   0  0  0  0  0  0  0  0  0  0  0  0
   -2.5693    1.2929    7.4167 N   0  0  0  0  0  0  0  0  0  0  0  0
   -3.5905    1.6277    8.4042 C   0  0  0  0  0  0  0  0  0  0  0  0
   -3.0099    0.1890    6.5697 C   0  0  0  0  0  0  0  0  0  0  0  0
    7.5531    7.5424    7.9226 C   0  0  0  0  0  0  0  0  0  0  0  0
    6.9679    6.6113    8.7808 C   0  0  0  0  0  0  0  0  0  0  0  0
    6.7700    8.5331    7.3300 C   0  0  0  0  0  0  0  0  0  0  0  0
    5.4019    8.5925    7.5956 C   0  0  0  0  0  0  0  0  0  0  0  0
    5.5998    6.6708    9.0463 C   0  0  0  0  0  0  0  0  0  0  0  0
    4.8169    7.6612    8.4538 C   0  0  0  0  0  0  0  0  0  0  0  0
   11.6982    7.2376    7.2873 O   0  0  0  0  0  0  0  0  0  0  0  0
    8.9224    7.5002    7.6405 N   0  0  0  0  0  0  0  0  0  0  0  0
    9.4943    6.2320    7.1676 C   0  0  0  0  0  0  0  0  0  0  0  0
    9.8484    8.3663    8.3783 C   0  0  0  0  0  0  0  0  0  0  0  0
   10.8117    6.4978    6.4480 C   0  0  0  0  0  0  0  0  0  0  0  0
   11.1474    8.5179    7.5946 C   0  0  0  0  0  0  0  0  0  0  0  0
    7.0212    3.6477    8.2986 O   0  0  0  0  0  0  0  0  0  0  0  0
    7.7331    5.6095    9.3853 N   0  0  0  0  0  0  0  0  0  0  0  0
    7.7164    4.2352    9.1191 C   0  0  0  0  0  0  0  0  0  0  0  0
    8.3754    5.9413   10.1020 H   0  0  0  0  0  0  0  0  0  0  0  0
    8.6854    3.4981    9.9812 C   0  0  0  0  0  0  0  0  0  0  0  0
    9.6325    2.7287    9.4354 C   0  0  0  0  0  0  0  0  0  0  0  0
    4.6538    9.5674    7.0059 O   0  0  0  0  0  0  0  0  0  0  0  0
    4.5069    9.5024    5.5891 C   0  0  0  0  0  0  0  0  0  0  0  0
 30 34  1  0
 30 35  1  0
 42 27  1  0
 42 43  1  0
 36 38  2  0
 31 32  1  0
 31 33  1  0
 31 24  1  0
 37 25  1  0
 37 38  1  0
 37 39  1  0
  1 29  1  0
  1  5  1  0
  1  2  1  0
  9 10  1  0
  9 13  1  0
  9  6  1  0
 21 20  1  0
 21 22  1  0
 21 23  1  0
 10 12  2  0
  3  5  2  0
  3  6  1  0
  4  5  1  0
  4  8  2  0
 32 34  1  0
 33 35  1  0
 24 25  2  0
 24 26  1  0
 25 28  1  0
 26 27  2  0
 27 29  1  0
 28 29  2  0
 11 20  1  0
 11 12  1  0
 11 13  2  0
 12 14  1  0
  6  7  2  0
 14 15  2  0
 14 16  1  0
 38 40  1  0
  7  8  1  0
 15 17  1  0
 16 18  2  0
 40 41  2  0
 17 19  2  0
 18 19  1  0
M  END
> <PUBCHEM_COMPOUND_CID>
121269225

> <PUBCHEM_CONFORMER_RMSD>
1.2

> <PUBCHEM_CONFORMER_DIVERSEORDER>
1
31
30
33
22
2
39
40
42
24
12
19
13
34
32
21
11
18
5
17
38
16
37
14
6
10
23
41
20
8
26
9
35
27
3
25
7
29
36
15
28
4

> <PUBCHEM_MMFF94_PARTIAL_CHARGES>
56
1 -0.56
10 -0.62
11 -0.62
12 0.37
13 0.37
14 0.1
15 0.28
16 0.28
17 0.12
18 -0.15
19 0.08
2 -0.36
20 -0.15
21 0.1
22 -0.18
23 0.45
24 0.23
25 -0.3
26 0.72
27 0.29
28 0.05
29 0.62
3 -0.57
30 0.27
31 0.27
32 -0.15
33 0.28
34 -0.15
35 -0.15
36 0.16
37 -0.14
38 -0.15
39 -0.15
4 -0.84
40 -0.15
41 -0.3
5 -0.55
50 0.15
51 0.15
52 0.37
53 0.4
56 0.15
6 -0.6
63 0.15
67 0.15
68 0.15
69 0.15
7 0.59
70 0.15
71 0.15
72 0.15
73 0.15
74 0.15
75 0.15
8 -0.81
9 -0.71

> <PUBCHEM_EFFECTIVE_ROTOR_COUNT>
12.2

> <PUBCHEM_PHARMACOPHORE_FEATURES>
15
1 1 acceptor
1 2 acceptor
1 3 acceptor
1 4 cation
1 41 hydrophobe
1 5 donor
1 6 donor
1 8 cation
1 9 acceptor
4 6 10 11 26 cation
5 7 9 22 24 25 rings
6 1 4 12 13 15 16 rings
6 10 11 26 27 32 36 rings
6 14 17 18 19 20 21 rings
6 28 34 35 38 39 40 rings

> <PUBCHEM_HEAVY_ATOM_COUNT>
41

> <PUBCHEM_ATOM_DEF_STEREO_COUNT>
0

> <PUBCHEM_ATOM_UDEF_STEREO_COUNT>
0

> <PUBCHEM_BOND_DEF_STEREO_COUNT>
0

> <PUBCHEM_BOND_UDEF_STEREO_COUNT>
0

> <PUBCHEM_ISOTOPIC_ATOM_COUNT>
0

> <PUBCHEM_COMPONENT_COUNT>
1

> <PUBCHEM_CACTVS_TAUTO_COUNT>
21

> <PUBCHEM_CONFORMER_ID>
073A6BE900000001

> <PUBCHEM_MMFF94_ENERGY>
152.827

> <PUBCHEM_FEATURE_SELFOVERLAP>
76.123

> <PUBCHEM_SHAPE_FINGERPRINT>
10462674 296 18055900229362274326
117089 54 18263092144354338331
11963148 33 18115585942575997050
12107698 1 18337393841724322403
12559416 138 18339348712874340727
13560911 23 18408602557088241267
14279260 333 18187357693993441490
14394314 77 18337110056029612200
15001296 14 18265896865773273624
15021287 119 18341047531706515807
15064986 96 18059864904782135415
15444296 121 18408895039955283246
16110190 28 18341895182268168492
19311894 1 18339911736691467118
19319366 153 17760935438911142901
19611394 137 18261683687065550115
19841028 212 18117559742109845515
208703 8 18336543905992583145
21033648 29 17631719491893857602
25019877 29 17275108357344291455
25222932 49 18408041814642871966
3383291 50 18337952393284008379
4461854 278 18130515235522043406
44880168 125 17560794378212456590
9896288 288 18270402668086312625

> <PUBCHEM_SHAPE_MULTIPOLES>
786.3
19.57
6.26
1.77
11.23
3.91
0.4
-14.21
5.68
-4.91
-0.06
-0.46
-1.67
-2

> <PUBCHEM_SHAPE_SELFOVERLAP>
1697.64

> <PUBCHEM_SHAPE_VOLUME>
430.8

> <PUBCHEM_COORDINATE_TYPE>
2
5
10

> <minimizedAffinity>
-7.12236

> <CNNscore>
0.1196467876

> <CNNaffinity>
5.3560442924

> <CNN_VS>
0.6408334970

> <CNNaffinity_variance>
1.0928040743

$$$$
121269225


 43 47  0  0  0  0  0  0  0  0999 V2000
   -0.1088    3.6726    7.3201 N   0  0  0  0  0  0  0  0  0  0  0  0
    0.3179    3.3666    6.4508 H   0  0  0  0  0  0  0  0  0  0  0  0
   -0.3535    5.9506    6.8334 N   0  0  0  0  0  0  0  0  0  0  0  0
    0.9894    5.2183    8.6957 N   0  0  0  0  0  0  0  0  0  0  0  0
    0.1901    5.0120    7.6317 C   0  0  0  0  0  0  0  0  0  0  0  0
   -0.0462    7.2231    7.1601 C   0  0  0  0  0  0  0  0  0  0  0  0
    0.7607    7.5677    8.2254 C   0  0  0  0  0  0  0  0  0  0  0  0
    1.2553    6.5132    8.9654 C   0  0  0  0  0  0  0  0  0  0  0  0
   -0.5736    8.2398    6.3792 N   0  0  0  0  0  0  0  0  0  0  0  0
   -1.9018    8.4371    6.3236 N   0  0  0  0  0  0  0  0  0  0  0  0
   -0.7759    9.9381    5.0208 C   0  0  0  0  0  0  0  0  0  0  0  0
   -2.0193    9.4760    5.4921 C   0  0  0  0  0  0  0  0  0  0  0  0
    0.1458    9.1123    5.6167 C   0  0  0  0  0  0  0  0  0  0  0  0
   -3.3212   10.0010    5.1693 C   0  0  0  0  0  0  0  0  0  0  0  0
   -3.4450   11.0344    4.2407 C   0  0  0  0  0  0  0  0  0  0  0  0
   -4.4576    9.4770    5.7850 C   0  0  0  0  0  0  0  0  0  0  0  0
   -4.7054   11.5438    3.9278 C   0  0  0  0  0  0  0  0  0  0  0  0
   -5.7179    9.9861    5.4724 C   0  0  0  0  0  0  0  0  0  0  0  0
   -5.8418   11.0196    4.5437 C   0  0  0  0  0  0  0  0  0  0  0  0
   -0.5024   11.0528    4.0968 C   0  0  0  0  0  0  0  0  0  0  0  0
    0.3718   12.0820    4.6797 N   0  0  0  0  0  0  0  0  0  0  0  0
   -0.3692   12.8791    5.6523 C   0  0  0  0  0  0  0  0  0  0  0  0
    0.9219   12.9298    3.6267 C   0  0  0  0  0  0  0  0  0  0  0  0
   -2.7737    0.8901    8.9970 C   0  0  0  0  0  0  0  0  0  0  0  0
   -3.2219    1.8042    8.0434 C   0  0  0  0  0  0  0  0  0  0  0  0
   -1.4373    0.8983    9.3967 C   0  0  0  0  0  0  0  0  0  0  0  0
   -0.5493    1.8207    8.8430 C   0  0  0  0  0  0  0  0  0  0  0  0
   -2.3339    2.7266    7.4898 C   0  0  0  0  0  0  0  0  0  0  0  0
   -0.9978    2.7347    7.8895 C   0  0  0  0  0  0  0  0  0  0  0  0
   -5.1964   -1.9809   10.8854 O   0  0  0  0  0  0  0  0  0  0  0  0
   -3.6460   -0.0449    9.5636 N   0  0  0  0  0  0  0  0  0  0  0  0
   -4.1299    0.1970   10.9298 C   0  0  0  0  0  0  0  0  0  0  0  0
   -3.5611   -1.4560    9.1719 C   0  0  0  0  0  0  0  0  0  0  0  0
   -5.4076   -0.5985   11.1719 C   0  0  0  0  0  0  0  0  0  0  0  0
   -4.8688   -2.1640    9.5084 C   0  0  0  0  0  0  0  0  0  0  0  0
   -4.7796    3.8966    6.5555 O   0  0  0  0  0  0  0  0  0  0  0  0
   -4.5565    1.8139    7.6274 N   0  0  0  0  0  0  0  0  0  0  0  0
   -5.2341    2.8228    6.9324 C   0  0  0  0  0  0  0  0  0  0  0  0
   -5.0812    0.9751    7.8670 H   0  0  0  0  0  0  0  0  0  0  0  0
   -6.6554    2.4508    6.6737 C   0  0  0  0  0  0  0  0  0  0  0  0
   -7.1090    2.3276    5.4223 C   0  0  0  0  0  0  0  0  0  0  0  0
    0.7527    1.8118    9.2460 O   0  0  0  0  0  0  0  0  0  0  0  0
    1.1234    0.8343   10.2157 C   0  0  0  0  0  0  0  0  0  0  0  0
 30 34  1  0
 30 35  1  0
 42 27  1  0
 42 43  1  0
 36 38  2  0
 31 32  1  0
 31 33  1  0
 31 24  1  0
 37 25  1  0
 37 38  1  0
 37 39  1  0
  1 29  1  0
  1  5  1  0
  1  2  1  0
  9 10  1  0
  9 13  1  0
  9  6  1  0
 21 20  1  0
 21 22  1  0
 21 23  1  0
 10 12  2  0
  3  5  2  0
  3  6  1  0
  4  5  1  0
  4  8  2  0
 32 34  1  0
 33 35  1  0
 24 25  2  0
 24 26  1  0
 25 28  1  0
 26 27  2  0
 27 29  1  0
 28 29  2  0
 11 20  1  0
 11 12  1  0
 11 13  2  0
 12 14  1  0
  6  7  2  0
 14 15  2  0
 14 16  1  0
 38 40  1  0
  7  8  1  0
 15 17  1  0
 16 18  2  0
 40 41  2  0
 17 19  2  0
 18 19  1  0
M  END
> <PUBCHEM_COMPOUND_CID>
121269225

> <PUBCHEM_CONFORMER_RMSD>
1.2

> <PUBCHEM_CONFORMER_DIVERSEORDER>
1
31
30
33
22
2
39
40
42
24
12
19
13
34
32
21
11
18
5
17
38
16
37
14
6
10
23
41
20
8
26
9
35
27
3
25
7
29
36
15
28
4

> <PUBCHEM_MMFF94_PARTIAL_CHARGES>
56
1 -0.56
10 -0.62
11 -0.62
12 0.37
13 0.37
14 0.1
15 0.28
16 0.28
17 0.12
18 -0.15
19 0.08
2 -0.36
20 -0.15
21 0.1
22 -0.18
23 0.45
24 0.23
25 -0.3
26 0.72
27 0.29
28 0.05
29 0.62
3 -0.57
30 0.27
31 0.27
32 -0.15
33 0.28
34 -0.15
35 -0.15
36 0.16
37 -0.14
38 -0.15
39 -0.15
4 -0.84
40 -0.15
41 -0.3
5 -0.55
50 0.15
51 0.15
52 0.37
53 0.4
56 0.15
6 -0.6
63 0.15
67 0.15
68 0.15
69 0.15
7 0.59
70 0.15
71 0.15
72 0.15
73 0.15
74 0.15
75 0.15
8 -0.81
9 -0.71

> <PUBCHEM_EFFECTIVE_ROTOR_COUNT>
12.2

> <PUBCHEM_PHARMACOPHORE_FEATURES>
15
1 1 acceptor
1 2 acceptor
1 3 acceptor
1 4 cation
1 41 hydrophobe
1 5 donor
1 6 donor
1 8 cation
1 9 acceptor
4 6 10 11 26 cation
5 7 9 22 24 25 rings
6 1 4 12 13 15 16 rings
6 10 11 26 27 32 36 rings
6 14 17 18 19 20 21 rings
6 28 34 35 38 39 40 rings

> <PUBCHEM_HEAVY_ATOM_COUNT>
41

> <PUBCHEM_ATOM_DEF_STEREO_COUNT>
0

> <PUBCHEM_ATOM_UDEF_STEREO_COUNT>
0

> <PUBCHEM_BOND_DEF_STEREO_COUNT>
0

> <PUBCHEM_BOND_UDEF_STEREO_COUNT>
0

> <PUBCHEM_ISOTOPIC_ATOM_COUNT>
0

> <PUBCHEM_COMPONENT_COUNT>
1

> <PUBCHEM_CACTVS_TAUTO_COUNT>
21

> <PUBCHEM_CONFORMER_ID>
073A6BE900000001

> <PUBCHEM_MMFF94_ENERGY>
152.827

> <PUBCHEM_FEATURE_SELFOVERLAP>
76.123

> <PUBCHEM_SHAPE_FINGERPRINT>
10462674 296 18055900229362274326
117089 54 18263092144354338331
11963148 33 18115585942575997050
12107698 1 18337393841724322403
12559416 138 18339348712874340727
13560911 23 18408602557088241267
14279260 333 18187357693993441490
14394314 77 18337110056029612200
15001296 14 18265896865773273624
15021287 119 18341047531706515807
15064986 96 18059864904782135415
15444296 121 18408895039955283246
16110190 28 18341895182268168492
19311894 1 18339911736691467118
19319366 153 17760935438911142901
19611394 137 18261683687065550115
19841028 212 18117559742109845515
208703 8 18336543905992583145
21033648 29 17631719491893857602
25019877 29 17275108357344291455
25222932 49 18408041814642871966
3383291 50 18337952393284008379
4461854 278 18130515235522043406
44880168 125 17560794378212456590
9896288 288 18270402668086312625

> <PUBCHEM_SHAPE_MULTIPOLES>
786.3
19.57
6.26
1.77
11.23
3.91
0.4
-14.21
5.68
-4.91
-0.06
-0.46
-1.67
-2

> <PUBCHEM_SHAPE_SELFOVERLAP>
1697.64

> <PUBCHEM_SHAPE_VOLUME>
430.8

> <PUBCHEM_COORDINATE_TYPE>
2
5
10

> <minimizedAffinity>
-9.10287

> <CNNscore>
0.1009344533

> <CNNaffinity>
5.9426379204

> <CNN_VS>
0.5998169184

> <CNNaffinity_variance>
1.4230457544

$$$$
