176870


 30 32  0  0  0  0  0  0  0  0999 V2000
    1.8422    0.1527  -10.8016 N   0  0  0  0  0  0  0  0  0  0  0  0
    4.1502    0.8065  -11.0314 N   0  0  0  0  0  0  0  0  0  0  0  0
    3.5666   -1.2433   -9.8907 C   0  0  0  0  0  0  0  0  0  0  0  0
    2.2144   -0.9574  -10.1403 C   0  0  0  0  0  0  0  0  0  0  0  0
    2.9720   -3.2956   -8.7492 C   0  0  0  0  0  0  0  0  0  0  0  0
    1.6300   -3.0235   -8.9903 C   0  0  0  0  0  0  0  0  0  0  0  0
    3.9440   -2.4071   -9.1984 C   0  0  0  0  0  0  0  0  0  0  0  0
    4.4881   -0.3143  -10.3662 C   0  0  0  0  0  0  0  0  0  0  0  0
    1.2627   -1.8640   -9.6796 C   0  0  0  0  0  0  0  0  0  0  0  0
    2.8300    0.9744  -11.2108 C   0  0  0  0  0  0  0  0  0  0  0  0
    5.8715   -0.5352  -10.1522 N   0  0  0  0  0  0  0  0  0  0  0  0
    6.0528   -1.2372   -9.4400 H   0  0  0  0  0  0  0  0  0  0  0  0
    7.0113   -0.1948  -10.8975 C   0  0  0  0  0  0  0  0  0  0  0  0
    6.9137    0.7262  -11.9406 C   0  0  0  0  0  0  0  0  0  0  0  0
    8.2417   -0.7778  -10.5948 C   0  0  0  0  0  0  0  0  0  0  0  0
    8.0467    1.0639  -12.6808 C   0  0  0  0  0  0  0  0  0  0  0  0
    9.3747   -0.4400  -11.3349 C   0  0  0  0  0  0  0  0  0  0  0  0
    9.2771    0.4808  -12.3781 C   0  0  0  0  0  0  0  0  0  0  0  0
    7.9474    2.0072  -13.7495 C   0  0  0  0  0  0  0  0  0  0  0  0
    7.8640    2.8000  -14.6476 C   0  0  0  0  0  0  0  0  0  0  0  0
    3.3445   -4.4214   -8.0807 O   0  0  0  0  0  0  0  0  0  0  0  0
    3.6846   -4.2755   -6.7028 C   0  0  0  0  0  0  0  0  0  0  0  0
    4.2784   -5.5769   -6.1992 C   0  0  0  0  0  0  0  0  0  0  0  0
    3.3987   -6.1470   -5.2377 O   0  0  0  0  0  0  0  0  0  0  0  0
    4.0455   -6.3331   -3.9863 C   0  0  0  0  0  0  0  0  0  0  0  0
    0.6614   -3.8798   -8.5599 O   0  0  0  0  0  0  0  0  0  0  0  0
   -0.1395   -3.4522   -7.4601 C   0  0  0  0  0  0  0  0  0  0  0  0
   -0.8581   -4.6526   -6.8751 C   0  0  0  0  0  0  0  0  0  0  0  0
   -2.1838   -4.6957   -7.3890 O   0  0  0  0  0  0  0  0  0  0  0  0
   -2.6158   -3.4137   -7.8231 C   0  0  0  0  0  0  0  0  0  0  0  0
 21  5  1  0
 21 22  1  0
 26  6  1  0
 26 27  1  0
 24 23  1  0
 24 25  1  0
 29 28  1  0
 29 30  1  0
 11  8  1  0
 11 13  1  0
 11 12  1  0
  1  4  2  0
  1 10  1  0
  2  8  1  0
  2 10  2  0
  3  4  1  0
  3  7  1  0
  3  8  2  0
  4  9  1  0
  5  6  1  0
  5  7  2  0
  6  9  2  0
 22 23  1  0
 13 14  2  0
 13 15  1  0
 27 28  1  0
 14 16  1  0
 15 17  2  0
 16 18  2  0
 16 19  1  0
 17 18  1  0
 19 20  3  0
M  END
> <PUBCHEM_COMPOUND_CID>
176870

> <PUBCHEM_CONFORMER_RMSD>
1

> <PUBCHEM_CONFORMER_DIVERSEORDER>
2
33
38
31
11
15
35
8
30
34
26
17
40
39
24
9
21
3
10
29
13
7
36
4
22
5
14
23
18
1
20
25
28
19
12
37
16
6
27
32

> <PUBCHEM_MMFF94_PARTIAL_CHARGES>
37
1 -0.36
10 0.08
11 0.08
12 -0.15
13 0.41
14 -0.15
15 0.28
16 0.1
17 0.28
18 0.47
19 0.28
2 -0.36
20 0.28
21 -0.15
22 -0.15
23 0.07
24 -0.15
25 -0.15
26 0.28
27 0.28
28 -0.07
29 -0.18
3 -0.56
30 0.15
31 0.15
32 0.4
37 0.15
4 -0.56
42 0.15
43 0.15
44 0.15
45 0.15
5 -0.6
52 0.18
6 -0.62
7 -0.62
9 0.31

> <PUBCHEM_EFFECTIVE_ROTOR_COUNT>
10

> <PUBCHEM_PHARMACOPHORE_FEATURES>
11
1 1 acceptor
1 2 acceptor
1 29 hydrophobe
1 3 acceptor
1 4 acceptor
1 5 donor
3 5 7 13 cation
3 6 7 18 cation
6 16 21 22 23 24 25 rings
6 6 7 8 9 13 18 rings
6 8 9 10 11 12 14 rings

> <PUBCHEM_HEAVY_ATOM_COUNT>
29

> <PUBCHEM_ATOM_DEF_STEREO_COUNT>
0

> <PUBCHEM_ATOM_UDEF_STEREO_COUNT>
0

> <PUBCHEM_BOND_DEF_STEREO_COUNT>
0

> <PUBCHEM_BOND_UDEF_STEREO_COUNT>
0

> <PUBCHEM_ISOTOPIC_ATOM_COUNT>
0

> <PUBCHEM_COMPONENT_COUNT>
1

> <PUBCHEM_CACTVS_TAUTO_COUNT>
3

> <PUBCHEM_CONFORMER_ID>
0002B2E600000002

> <PUBCHEM_MMFF94_ENERGY>
109.0345

> <PUBCHEM_FEATURE_SELFOVERLAP>
56.004

> <PUBCHEM_SHAPE_FINGERPRINT>
10050765 1 18265903634409981085
10319926 262 18341897415355152619
1100329 8 18410580586859225941
11135609 12 18339077193841987016
12035758 1 18341335517911506697
12107183 9 18410301306964043347
13140716 1 18341053003157227613
14866123 147 18335989735686148763
15042514 8 18410300215899931757
15131766 46 15624785411136496104
15537594 2 17894632517921483410
1813 80 17967535628270432548
18603816 31 16588306111714570659
20028762 73 18202569458605911511
21033648 29 17560222700922275914
21267235 1 18340215076997820492
21521239 73 13695593226494534760
21792934 111 18271802363463215817
22122407 14 15697993046696727122
23559900 14 18340486767717355157
23569914 152 12110548262754726986
3004659 81 18114474383490966340
3178227 256 18336283258119562097
335352 9 18411426098732582533
3383291 50 18411139121966439187
3882209 13 17264378412770275454
397830 11 18130503136730142786
50009960 94 17684628202304312418
5104073 3 18340486784702110729
5486654 36 18334299802929227327

> <PUBCHEM_SHAPE_MULTIPOLES>
558.39
18.56
3.67
1.58
0.91
1.25
1.1
7.15
9.51
4.62
0.05
-3.57
0.24
1.11

> <PUBCHEM_SHAPE_SELFOVERLAP>
1186.285

> <PUBCHEM_SHAPE_VOLUME>
308.9

> <PUBCHEM_COORDINATE_TYPE>
2
5
10

> <minimizedAffinity>
-7.58367

> <CNNscore>
0.8838021755

> <CNNaffinity>
7.0897755623

> <CNN_VS>
6.2659592628

> <CNNaffinity_variance>
0.0071574985

$$$$
176870


 30 32  0  0  0  0  0  0  0  0999 V2000
    2.4201    0.3943  -11.0120 N   0  0  0  0  0  0  0  0  0  0  0  0
    4.8120    0.6683  -11.1152 N   0  0  0  0  0  0  0  0  0  0  0  0
    3.8480   -1.2850  -10.0669 C   0  0  0  0  0  0  0  0  0  0  0  0
    2.5741   -0.7767  -10.3693 C   0  0  0  0  0  0  0  0  0  0  0  0
    2.8727   -3.2389   -9.0184 C   0  0  0  0  0  0  0  0  0  0  0  0
    1.6062   -2.7462   -9.3122 C   0  0  0  0  0  0  0  0  0  0  0  0
    3.9970   -2.5105   -9.3946 C   0  0  0  0  0  0  0  0  0  0  0  0
    4.9303   -0.5078  -10.4705 C   0  0  0  0  0  0  0  0  0  0  0  0
    1.4664   -1.5265   -9.9812 C   0  0  0  0  0  0  0  0  0  0  0  0
    3.5471    1.0532  -11.3497 C   0  0  0  0  0  0  0  0  0  0  0  0
    6.2472   -0.9562  -10.2003 N   0  0  0  0  0  0  0  0  0  0  0  0
    6.2718   -1.7385   -9.5519 H   0  0  0  0  0  0  0  0  0  0  0  0
    7.4753   -0.7292  -10.8414 C   0  0  0  0  0  0  0  0  0  0  0  0
    8.4707   -1.7058  -10.8085 C   0  0  0  0  0  0  0  0  0  0  0  0
    7.6998    0.4733  -11.5115 C   0  0  0  0  0  0  0  0  0  0  0  0
    9.6908   -1.4795  -11.4457 C   0  0  0  0  0  0  0  0  0  0  0  0
    8.9198    0.6995  -12.1488 C   0  0  0  0  0  0  0  0  0  0  0  0
    9.9153   -0.2769  -12.1157 C   0  0  0  0  0  0  0  0  0  0  0  0
   10.7110   -2.4794  -11.4122 C   0  0  0  0  0  0  0  0  0  0  0  0
   11.5683   -3.3198  -11.3840 C   0  0  0  0  0  0  0  0  0  0  0  0
    3.0241   -4.4256   -8.3689 O   0  0  0  0  0  0  0  0  0  0  0  0
    4.2675   -5.1044   -8.5385 C   0  0  0  0  0  0  0  0  0  0  0  0
    4.8394   -5.4378   -7.1741 C   0  0  0  0  0  0  0  0  0  0  0  0
    6.1271   -4.8455   -7.0534 O   0  0  0  0  0  0  0  0  0  0  0  0
    6.7595   -4.7124   -8.3188 C   0  0  0  0  0  0  0  0  0  0  0  0
    0.4915   -3.4429   -8.9536 O   0  0  0  0  0  0  0  0  0  0  0  0
   -0.2429   -2.9576   -7.8316 C   0  0  0  0  0  0  0  0  0  0  0  0
   -0.8237   -4.1355   -7.0733 C   0  0  0  0  0  0  0  0  0  0  0  0
    0.2031   -4.7380   -6.2947 O   0  0  0  0  0  0  0  0  0  0  0  0
    0.4019   -6.0972   -6.6574 C   0  0  0  0  0  0  0  0  0  0  0  0
 21  5  1  0
 21 22  1  0
 26  6  1  0
 26 27  1  0
 24 23  1  0
 24 25  1  0
 29 28  1  0
 29 30  1  0
 11  8  1  0
 11 13  1  0
 11 12  1  0
  1  4  2  0
  1 10  1  0
  2  8  1  0
  2 10  2  0
  3  4  1  0
  3  7  1  0
  3  8  2  0
  4  9  1  0
  5  6  1  0
  5  7  2  0
  6  9  2  0
 22 23  1  0
 13 14  2  0
 13 15  1  0
 27 28  1  0
 14 16  1  0
 15 17  2  0
 16 18  2  0
 16 19  1  0
 17 18  1  0
 19 20  3  0
M  END
> <PUBCHEM_COMPOUND_CID>
176870

> <PUBCHEM_CONFORMER_RMSD>
1

> <PUBCHEM_CONFORMER_DIVERSEORDER>
2
33
38
31
11
15
35
8
30
34
26
17
40
39
24
9
21
3
10
29
13
7
36
4
22
5
14
23
18
1
20
25
28
19
12
37
16
6
27
32

> <PUBCHEM_MMFF94_PARTIAL_CHARGES>
37
1 -0.36
10 0.08
11 0.08
12 -0.15
13 0.41
14 -0.15
15 0.28
16 0.1
17 0.28
18 0.47
19 0.28
2 -0.36
20 0.28
21 -0.15
22 -0.15
23 0.07
24 -0.15
25 -0.15
26 0.28
27 0.28
28 -0.07
29 -0.18
3 -0.56
30 0.15
31 0.15
32 0.4
37 0.15
4 -0.56
42 0.15
43 0.15
44 0.15
45 0.15
5 -0.6
52 0.18
6 -0.62
7 -0.62
9 0.31

> <PUBCHEM_EFFECTIVE_ROTOR_COUNT>
10

> <PUBCHEM_PHARMACOPHORE_FEATURES>
11
1 1 acceptor
1 2 acceptor
1 29 hydrophobe
1 3 acceptor
1 4 acceptor
1 5 donor
3 5 7 13 cation
3 6 7 18 cation
6 16 21 22 23 24 25 rings
6 6 7 8 9 13 18 rings
6 8 9 10 11 12 14 rings

> <PUBCHEM_HEAVY_ATOM_COUNT>
29

> <PUBCHEM_ATOM_DEF_STEREO_COUNT>
0

> <PUBCHEM_ATOM_UDEF_STEREO_COUNT>
0

> <PUBCHEM_BOND_DEF_STEREO_COUNT>
0

> <PUBCHEM_BOND_UDEF_STEREO_COUNT>
0

> <PUBCHEM_ISOTOPIC_ATOM_COUNT>
0

> <PUBCHEM_COMPONENT_COUNT>
1

> <PUBCHEM_CACTVS_TAUTO_COUNT>
3

> <PUBCHEM_CONFORMER_ID>
0002B2E600000002

> <PUBCHEM_MMFF94_ENERGY>
109.0345

> <PUBCHEM_FEATURE_SELFOVERLAP>
56.004

> <PUBCHEM_SHAPE_FINGERPRINT>
10050765 1 18265903634409981085
10319926 262 18341897415355152619
1100329 8 18410580586859225941
11135609 12 18339077193841987016
12035758 1 18341335517911506697
12107183 9 18410301306964043347
13140716 1 18341053003157227613
14866123 147 18335989735686148763
15042514 8 18410300215899931757
15131766 46 15624785411136496104
15537594 2 17894632517921483410
1813 80 17967535628270432548
18603816 31 16588306111714570659
20028762 73 18202569458605911511
21033648 29 17560222700922275914
21267235 1 18340215076997820492
21521239 73 13695593226494534760
21792934 111 18271802363463215817
22122407 14 15697993046696727122
23559900 14 18340486767717355157
23569914 152 12110548262754726986
3004659 81 18114474383490966340
3178227 256 18336283258119562097
335352 9 18411426098732582533
3383291 50 18411139121966439187
3882209 13 17264378412770275454
397830 11 18130503136730142786
50009960 94 17684628202304312418
5104073 3 18340486784702110729
5486654 36 18334299802929227327

> <PUBCHEM_SHAPE_MULTIPOLES>
558.39
18.56
3.67
1.58
0.91
1.25
1.1
7.15
9.51
4.62
0.05
-3.57
0.24
1.11

> <PUBCHEM_SHAPE_SELFOVERLAP>
1186.285

> <PUBCHEM_SHAPE_VOLUME>
308.9

> <PUBCHEM_COORDINATE_TYPE>
2
5
10

> <minimizedAffinity>
-6.91030

> <CNNscore>
0.7841216922

> <CNNaffinity>
6.5943679810

> <CNN_VS>
5.1707868576

> <CNNaffinity_variance>
0.0929671824

$$$$
176870


 30 32  0  0  0  0  0  0  0  0999 V2000
    3.1133    0.0046  -10.8949 N   0  0  0  0  0  0  0  0  0  0  0  0
    1.8673   -1.7948   -9.8866 N   0  0  0  0  0  0  0  0  0  0  0  0
    4.2837   -1.8514   -9.9266 C   0  0  0  0  0  0  0  0  0  0  0  0
    4.2678   -0.6156  -10.5937 C   0  0  0  0  0  0  0  0  0  0  0  0
    6.7052   -1.8993   -9.9715 C   0  0  0  0  0  0  0  0  0  0  0  0
    6.7025   -0.6759  -10.6322 C   0  0  0  0  0  0  0  0  0  0  0  0
    5.4967   -2.4906   -9.6167 C   0  0  0  0  0  0  0  0  0  0  0  0
    3.0414   -2.3885   -9.6002 C   0  0  0  0  0  0  0  0  0  0  0  0
    5.4918   -0.0465  -10.9368 C   0  0  0  0  0  0  0  0  0  0  0  0
    1.9761   -0.6186  -10.5255 C   0  0  0  0  0  0  0  0  0  0  0  0
    2.9777   -3.6332   -8.9257 N   0  0  0  0  0  0  0  0  0  0  0  0
    3.8925   -4.0538   -8.7877 H   0  0  0  0  0  0  0  0  0  0  0  0
    1.9634   -4.2564   -8.1818 C   0  0  0  0  0  0  0  0  0  0  0  0
    0.6522   -3.7869   -8.2591 C   0  0  0  0  0  0  0  0  0  0  0  0
    2.2671   -5.3457   -7.3651 C   0  0  0  0  0  0  0  0  0  0  0  0
   -0.3551   -4.4066   -7.5196 C   0  0  0  0  0  0  0  0  0  0  0  0
    1.2597   -5.9654   -6.6257 C   0  0  0  0  0  0  0  0  0  0  0  0
   -0.0514   -5.4957   -6.7028 C   0  0  0  0  0  0  0  0  0  0  0  0
   -1.6984   -3.9259   -7.5982 C   0  0  0  0  0  0  0  0  0  0  0  0
   -2.8273   -3.5219   -7.6642 C   0  0  0  0  0  0  0  0  0  0  0  0
    7.8764   -2.5230   -9.6671 O   0  0  0  0  0  0  0  0  0  0  0  0
    8.3351   -2.4209   -8.3200 C   0  0  0  0  0  0  0  0  0  0  0  0
    8.0215   -3.7133   -7.5912 C   0  0  0  0  0  0  0  0  0  0  0  0
    7.5416   -3.4063   -6.2878 O   0  0  0  0  0  0  0  0  0  0  0  0
    6.6171   -4.3834   -5.8301 C   0  0  0  0  0  0  0  0  0  0  0  0
    7.8741   -0.0786  -10.9887 O   0  0  0  0  0  0  0  0  0  0  0  0
    7.8169    0.8851  -12.0383 C   0  0  0  0  0  0  0  0  0  0  0  0
    9.2124    1.4202  -12.2953 C   0  0  0  0  0  0  0  0  0  0  0  0
    9.7720    1.8666  -11.0660 O   0  0  0  0  0  0  0  0  0  0  0  0
   11.1897    1.9323  -11.1328 C   0  0  0  0  0  0  0  0  0  0  0  0
 21  5  1  0
 21 22  1  0
 26  6  1  0
 26 27  1  0
 24 23  1  0
 24 25  1  0
 29 28  1  0
 29 30  1  0
 11  8  1  0
 11 13  1  0
 11 12  1  0
  1  4  2  0
  1 10  1  0
  2  8  1  0
  2 10  2  0
  3  4  1  0
  3  7  1  0
  3  8  2  0
  4  9  1  0
  5  6  1  0
  5  7  2  0
  6  9  2  0
 22 23  1  0
 13 14  2  0
 13 15  1  0
 27 28  1  0
 14 16  1  0
 15 17  2  0
 16 18  2  0
 16 19  1  0
 17 18  1  0
 19 20  3  0
M  END
> <PUBCHEM_COMPOUND_CID>
176870

> <PUBCHEM_CONFORMER_RMSD>
1

> <PUBCHEM_CONFORMER_DIVERSEORDER>
2
33
38
31
11
15
35
8
30
34
26
17
40
39
24
9
21
3
10
29
13
7
36
4
22
5
14
23
18
1
20
25
28
19
12
37
16
6
27
32

> <PUBCHEM_MMFF94_PARTIAL_CHARGES>
37
1 -0.36
10 0.08
11 0.08
12 -0.15
13 0.41
14 -0.15
15 0.28
16 0.1
17 0.28
18 0.47
19 0.28
2 -0.36
20 0.28
21 -0.15
22 -0.15
23 0.07
24 -0.15
25 -0.15
26 0.28
27 0.28
28 -0.07
29 -0.18
3 -0.56
30 0.15
31 0.15
32 0.4
37 0.15
4 -0.56
42 0.15
43 0.15
44 0.15
45 0.15
5 -0.6
52 0.18
6 -0.62
7 -0.62
9 0.31

> <PUBCHEM_EFFECTIVE_ROTOR_COUNT>
10

> <PUBCHEM_PHARMACOPHORE_FEATURES>
11
1 1 acceptor
1 2 acceptor
1 29 hydrophobe
1 3 acceptor
1 4 acceptor
1 5 donor
3 5 7 13 cation
3 6 7 18 cation
6 16 21 22 23 24 25 rings
6 6 7 8 9 13 18 rings
6 8 9 10 11 12 14 rings

> <PUBCHEM_HEAVY_ATOM_COUNT>
29

> <PUBCHEM_ATOM_DEF_STEREO_COUNT>
0

> <PUBCHEM_ATOM_UDEF_STEREO_COUNT>
0

> <PUBCHEM_BOND_DEF_STEREO_COUNT>
0

> <PUBCHEM_BOND_UDEF_STEREO_COUNT>
0

> <PUBCHEM_ISOTOPIC_ATOM_COUNT>
0

> <PUBCHEM_COMPONENT_COUNT>
1

> <PUBCHEM_CACTVS_TAUTO_COUNT>
3

> <PUBCHEM_CONFORMER_ID>
0002B2E600000002

> <PUBCHEM_MMFF94_ENERGY>
109.0345

> <PUBCHEM_FEATURE_SELFOVERLAP>
56.004

> <PUBCHEM_SHAPE_FINGERPRINT>
10050765 1 18265903634409981085
10319926 262 18341897415355152619
1100329 8 18410580586859225941
11135609 12 18339077193841987016
12035758 1 18341335517911506697
12107183 9 18410301306964043347
13140716 1 18341053003157227613
14866123 147 18335989735686148763
15042514 8 18410300215899931757
15131766 46 15624785411136496104
15537594 2 17894632517921483410
1813 80 17967535628270432548
18603816 31 16588306111714570659
20028762 73 18202569458605911511
21033648 29 17560222700922275914
21267235 1 18340215076997820492
21521239 73 13695593226494534760
21792934 111 18271802363463215817
22122407 14 15697993046696727122
23559900 14 18340486767717355157
23569914 152 12110548262754726986
3004659 81 18114474383490966340
3178227 256 18336283258119562097
335352 9 18411426098732582533
3383291 50 18411139121966439187
3882209 13 17264378412770275454
397830 11 18130503136730142786
50009960 94 17684628202304312418
5104073 3 18340486784702110729
5486654 36 18334299802929227327

> <PUBCHEM_SHAPE_MULTIPOLES>
558.39
18.56
3.67
1.58
0.91
1.25
1.1
7.15
9.51
4.62
0.05
-3.57
0.24
1.11

> <PUBCHEM_SHAPE_SELFOVERLAP>
1186.285

> <PUBCHEM_SHAPE_VOLUME>
308.9

> <PUBCHEM_COORDINATE_TYPE>
2
5
10

> <minimizedAffinity>
-7.23401

> <CNNscore>
0.6947844028

> <CNNaffinity>
6.7657971382

> <CNN_VS>
4.7007703781

> <CNNaffinity_variance>
0.0038615502

$$$$
176870


 30 32  0  0  0  0  0  0  0  0999 V2000
  -16.1407  -14.2675  -11.6810 N   0  0  0  0  0  0  0  0  0  0  0  0
  -16.3547  -15.6121   -9.6927 N   0  0  0  0  0  0  0  0  0  0  0  0
  -15.2155  -16.4798  -11.6403 C   0  0  0  0  0  0  0  0  0  0  0  0
  -15.4754  -15.2633  -12.2923 C   0  0  0  0  0  0  0  0  0  0  0  0
  -14.0758  -17.3408  -13.5968 C   0  0  0  0  0  0  0  0  0  0  0  0
  -14.3269  -16.1409  -14.2529 C   0  0  0  0  0  0  0  0  0  0  0  0
  -14.5190  -17.5140  -12.2893 C   0  0  0  0  0  0  0  0  0  0  0  0
  -15.6856  -16.5886  -10.3343 C   0  0  0  0  0  0  0  0  0  0  0  0
  -15.0204  -15.1171  -13.6005 C   0  0  0  0  0  0  0  0  0  0  0  0
  -16.5444  -14.4959  -10.4148 C   0  0  0  0  0  0  0  0  0  0  0  0
  -15.4609  -17.7871   -9.6122 N   0  0  0  0  0  0  0  0  0  0  0  0
  -14.7780  -18.3936  -10.0581 H   0  0  0  0  0  0  0  0  0  0  0  0
  -15.7719  -18.1741   -8.2992 C   0  0  0  0  0  0  0  0  0  0  0  0
  -14.8109  -18.8096   -7.5127 C   0  0  0  0  0  0  0  0  0  0  0  0
  -17.0423  -17.9230   -7.7809 C   0  0  0  0  0  0  0  0  0  0  0  0
  -15.1206  -19.1940   -6.2081 C   0  0  0  0  0  0  0  0  0  0  0  0
  -17.3519  -18.3073   -6.4763 C   0  0  0  0  0  0  0  0  0  0  0  0
  -16.3911  -18.9429   -5.6900 C   0  0  0  0  0  0  0  0  0  0  0  0
  -14.1367  -19.8451   -5.4021 C   0  0  0  0  0  0  0  0  0  0  0  0
  -13.3098  -20.3923   -4.7248 C   0  0  0  0  0  0  0  0  0  0  0  0
  -13.4006  -18.3458  -14.2190 O   0  0  0  0  0  0  0  0  0  0  0  0
  -14.1665  -19.4646  -14.6631 C   0  0  0  0  0  0  0  0  0  0  0  0
  -13.2290  -20.5096  -15.2367 C   0  0  0  0  0  0  0  0  0  0  0  0
  -11.8887  -20.1556  -14.9180 O   0  0  0  0  0  0  0  0  0  0  0  0
  -10.9921  -20.5233  -15.9571 C   0  0  0  0  0  0  0  0  0  0  0  0
  -13.9019  -15.9493  -15.5333 O   0  0  0  0  0  0  0  0  0  0  0  0
  -13.3997  -14.6559  -15.8626 C   0  0  0  0  0  0  0  0  0  0  0  0
  -13.7723  -14.3307  -17.2963 C   0  0  0  0  0  0  0  0  0  0  0  0
  -12.6252  -13.8286  -17.9713 O   0  0  0  0  0  0  0  0  0  0  0  0
  -11.4817  -14.6350  -17.7250 C   0  0  0  0  0  0  0  0  0  0  0  0
 21  5  1  0
 21 22  1  0
 26  6  1  0
 26 27  1  0
 24 23  1  0
 24 25  1  0
 29 28  1  0
 29 30  1  0
 11  8  1  0
 11 13  1  0
 11 12  1  0
  1  4  2  0
  1 10  1  0
  2  8  1  0
  2 10  2  0
  3  4  1  0
  3  7  1  0
  3  8  2  0
  4  9  1  0
  5  6  1  0
  5  7  2  0
  6  9  2  0
 22 23  1  0
 13 14  2  0
 13 15  1  0
 27 28  1  0
 14 16  1  0
 15 17  2  0
 16 18  2  0
 16 19  1  0
 17 18  1  0
 19 20  3  0
M  END
> <PUBCHEM_COMPOUND_CID>
176870

> <PUBCHEM_CONFORMER_RMSD>
1

> <PUBCHEM_CONFORMER_DIVERSEORDER>
2
33
38
31
11
15
35
8
30
34
26
17
40
39
24
9
21
3
10
29
13
7
36
4
22
5
14
23
18
1
20
25
28
19
12
37
16
6
27
32

> <PUBCHEM_MMFF94_PARTIAL_CHARGES>
37
1 -0.36
10 0.08
11 0.08
12 -0.15
13 0.41
14 -0.15
15 0.28
16 0.1
17 0.28
18 0.47
19 0.28
2 -0.36
20 0.28
21 -0.15
22 -0.15
23 0.07
24 -0.15
25 -0.15
26 0.28
27 0.28
28 -0.07
29 -0.18
3 -0.56
30 0.15
31 0.15
32 0.4
37 0.15
4 -0.56
42 0.15
43 0.15
44 0.15
45 0.15
5 -0.6
52 0.18
6 -0.62
7 -0.62
9 0.31

> <PUBCHEM_EFFECTIVE_ROTOR_COUNT>
10

> <PUBCHEM_PHARMACOPHORE_FEATURES>
11
1 1 acceptor
1 2 acceptor
1 29 hydrophobe
1 3 acceptor
1 4 acceptor
1 5 donor
3 5 7 13 cation
3 6 7 18 cation
6 16 21 22 23 24 25 rings
6 6 7 8 9 13 18 rings
6 8 9 10 11 12 14 rings

> <PUBCHEM_HEAVY_ATOM_COUNT>
29

> <PUBCHEM_ATOM_DEF_STEREO_COUNT>
0

> <PUBCHEM_ATOM_UDEF_STEREO_COUNT>
0

> <PUBCHEM_BOND_DEF_STEREO_COUNT>
0

> <PUBCHEM_BOND_UDEF_STEREO_COUNT>
0

> <PUBCHEM_ISOTOPIC_ATOM_COUNT>
0

> <PUBCHEM_COMPONENT_COUNT>
1

> <PUBCHEM_CACTVS_TAUTO_COUNT>
3

> <PUBCHEM_CONFORMER_ID>
0002B2E600000002

> <PUBCHEM_MMFF94_ENERGY>
109.0345

> <PUBCHEM_FEATURE_SELFOVERLAP>
56.004

> <PUBCHEM_SHAPE_FINGERPRINT>
10050765 1 18265903634409981085
10319926 262 18341897415355152619
1100329 8 18410580586859225941
11135609 12 18339077193841987016
12035758 1 18341335517911506697
12107183 9 18410301306964043347
13140716 1 18341053003157227613
14866123 147 18335989735686148763
15042514 8 18410300215899931757
15131766 46 15624785411136496104
15537594 2 17894632517921483410
1813 80 17967535628270432548
18603816 31 16588306111714570659
20028762 73 18202569458605911511
21033648 29 17560222700922275914
21267235 1 18340215076997820492
21521239 73 13695593226494534760
21792934 111 18271802363463215817
22122407 14 15697993046696727122
23559900 14 18340486767717355157
23569914 152 12110548262754726986
3004659 81 18114474383490966340
3178227 256 18336283258119562097
335352 9 18411426098732582533
3383291 50 18411139121966439187
3882209 13 17264378412770275454
397830 11 18130503136730142786
50009960 94 17684628202304312418
5104073 3 18340486784702110729
5486654 36 18334299802929227327

> <PUBCHEM_SHAPE_MULTIPOLES>
558.39
18.56
3.67
1.58
0.91
1.25
1.1
7.15
9.51
4.62
0.05
-3.57
0.24
1.11

> <PUBCHEM_SHAPE_SELFOVERLAP>
1186.285

> <PUBCHEM_SHAPE_VOLUME>
308.9

> <PUBCHEM_COORDINATE_TYPE>
2
5
10

> <minimizedAffinity>
-4.79599

> <CNNscore>
0.6925284863

> <CNNaffinity>
5.0054640770

> <CNN_VS>
3.4664263725

> <CNNaffinity_variance>
0.1380991340

$$$$
176870


 30 32  0  0  0  0  0  0  0  0999 V2000
  -17.0741   -8.1055  -12.9538 N   0  0  0  0  0  0  0  0  0  0  0  0
  -17.0236   -9.3430  -10.8867 N   0  0  0  0  0  0  0  0  0  0  0  0
  -16.3940   -7.0095  -10.9318 C   0  0  0  0  0  0  0  0  0  0  0  0
  -16.6515   -7.0017  -12.3125 C   0  0  0  0  0  0  0  0  0  0  0  0
  -15.7647   -4.6709  -10.9870 C   0  0  0  0  0  0  0  0  0  0  0  0
  -16.0164   -4.6506  -12.3543 C   0  0  0  0  0  0  0  0  0  0  0  0
  -15.9526   -5.8495  -10.2718 C   0  0  0  0  0  0  0  0  0  0  0  0
  -16.6016   -8.2198  -10.2758 C   0  0  0  0  0  0  0  0  0  0  0  0
  -16.4552   -5.8085  -13.0035 C   0  0  0  0  0  0  0  0  0  0  0  0
  -17.2368   -9.2160  -12.2065 C   0  0  0  0  0  0  0  0  0  0  0  0
  -16.3627   -8.3046   -8.8815 N   0  0  0  0  0  0  0  0  0  0  0  0
  -15.3741   -8.3669   -8.6542 H   0  0  0  0  0  0  0  0  0  0  0  0
  -17.1729   -8.0469   -7.7645 C   0  0  0  0  0  0  0  0  0  0  0  0
  -16.6147   -8.0316   -6.4862 C   0  0  0  0  0  0  0  0  0  0  0  0
  -18.5363   -7.8059   -7.9331 C   0  0  0  0  0  0  0  0  0  0  0  0
  -17.4203   -7.7755   -5.3766 C   0  0  0  0  0  0  0  0  0  0  0  0
  -19.3418   -7.5496   -6.8235 C   0  0  0  0  0  0  0  0  0  0  0  0
  -18.7838   -7.5346   -5.5453 C   0  0  0  0  0  0  0  0  0  0  0  0
  -16.8493   -7.7600   -4.0669 C   0  0  0  0  0  0  0  0  0  0  0  0
  -16.3694   -7.7470   -2.9662 C   0  0  0  0  0  0  0  0  0  0  0  0
  -15.3385   -3.5507  -10.3414 O   0  0  0  0  0  0  0  0  0  0  0  0
  -16.3104   -2.5370  -10.0901 C   0  0  0  0  0  0  0  0  0  0  0  0
  -17.6413   -3.1938   -9.7783 C   0  0  0  0  0  0  0  0  0  0  0  0
  -18.6263   -2.6952  -10.6753 O   0  0  0  0  0  0  0  0  0  0  0  0
  -19.7607   -2.1983   -9.9788 C   0  0  0  0  0  0  0  0  0  0  0  0
  -15.8395   -3.5074  -13.0743 O   0  0  0  0  0  0  0  0  0  0  0  0
  -16.9664   -3.0159  -13.7969 C   0  0  0  0  0  0  0  0  0  0  0  0
  -16.7125   -1.5727  -14.1877 C   0  0  0  0  0  0  0  0  0  0  0  0
  -15.7893   -0.9990  -13.2700 O   0  0  0  0  0  0  0  0  0  0  0  0
  -16.3172    0.1729  -12.6645 C   0  0  0  0  0  0  0  0  0  0  0  0
 21  5  1  0
 21 22  1  0
 26  6  1  0
 26 27  1  0
 24 23  1  0
 24 25  1  0
 29 28  1  0
 29 30  1  0
 11  8  1  0
 11 13  1  0
 11 12  1  0
  1  4  2  0
  1 10  1  0
  2  8  1  0
  2 10  2  0
  3  4  1  0
  3  7  1  0
  3  8  2  0
  4  9  1  0
  5  6  1  0
  5  7  2  0
  6  9  2  0
 22 23  1  0
 13 14  2  0
 13 15  1  0
 27 28  1  0
 14 16  1  0
 15 17  2  0
 16 18  2  0
 16 19  1  0
 17 18  1  0
 19 20  3  0
M  END
> <PUBCHEM_COMPOUND_CID>
176870

> <PUBCHEM_CONFORMER_RMSD>
1

> <PUBCHEM_CONFORMER_DIVERSEORDER>
2
33
38
31
11
15
35
8
30
34
26
17
40
39
24
9
21
3
10
29
13
7
36
4
22
5
14
23
18
1
20
25
28
19
12
37
16
6
27
32

> <PUBCHEM_MMFF94_PARTIAL_CHARGES>
37
1 -0.36
10 0.08
11 0.08
12 -0.15
13 0.41
14 -0.15
15 0.28
16 0.1
17 0.28
18 0.47
19 0.28
2 -0.36
20 0.28
21 -0.15
22 -0.15
23 0.07
24 -0.15
25 -0.15
26 0.28
27 0.28
28 -0.07
29 -0.18
3 -0.56
30 0.15
31 0.15
32 0.4
37 0.15
4 -0.56
42 0.15
43 0.15
44 0.15
45 0.15
5 -0.6
52 0.18
6 -0.62
7 -0.62
9 0.31

> <PUBCHEM_EFFECTIVE_ROTOR_COUNT>
10

> <PUBCHEM_PHARMACOPHORE_FEATURES>
11
1 1 acceptor
1 2 acceptor
1 29 hydrophobe
1 3 acceptor
1 4 acceptor
1 5 donor
3 5 7 13 cation
3 6 7 18 cation
6 16 21 22 23 24 25 rings
6 6 7 8 9 13 18 rings
6 8 9 10 11 12 14 rings

> <PUBCHEM_HEAVY_ATOM_COUNT>
29

> <PUBCHEM_ATOM_DEF_STEREO_COUNT>
0

> <PUBCHEM_ATOM_UDEF_STEREO_COUNT>
0

> <PUBCHEM_BOND_DEF_STEREO_COUNT>
0

> <PUBCHEM_BOND_UDEF_STEREO_COUNT>
0

> <PUBCHEM_ISOTOPIC_ATOM_COUNT>
0

> <PUBCHEM_COMPONENT_COUNT>
1

> <PUBCHEM_CACTVS_TAUTO_COUNT>
3

> <PUBCHEM_CONFORMER_ID>
0002B2E600000002

> <PUBCHEM_MMFF94_ENERGY>
109.0345

> <PUBCHEM_FEATURE_SELFOVERLAP>
56.004

> <PUBCHEM_SHAPE_FINGERPRINT>
10050765 1 18265903634409981085
10319926 262 18341897415355152619
1100329 8 18410580586859225941
11135609 12 18339077193841987016
12035758 1 18341335517911506697
12107183 9 18410301306964043347
13140716 1 18341053003157227613
14866123 147 18335989735686148763
15042514 8 18410300215899931757
15131766 46 15624785411136496104
15537594 2 17894632517921483410
1813 80 17967535628270432548
18603816 31 16588306111714570659
20028762 73 18202569458605911511
21033648 29 17560222700922275914
21267235 1 18340215076997820492
21521239 73 13695593226494534760
21792934 111 18271802363463215817
22122407 14 15697993046696727122
23559900 14 18340486767717355157
23569914 152 12110548262754726986
3004659 81 18114474383490966340
3178227 256 18336283258119562097
335352 9 18411426098732582533
3383291 50 18411139121966439187
3882209 13 17264378412770275454
397830 11 18130503136730142786
50009960 94 17684628202304312418
5104073 3 18340486784702110729
5486654 36 18334299802929227327

> <PUBCHEM_SHAPE_MULTIPOLES>
558.39
18.56
3.67
1.58
0.91
1.25
1.1
7.15
9.51
4.62
0.05
-3.57
0.24
1.11

> <PUBCHEM_SHAPE_SELFOVERLAP>
1186.285

> <PUBCHEM_SHAPE_VOLUME>
308.9

> <PUBCHEM_COORDINATE_TYPE>
2
5
10

> <minimizedAffinity>
-4.79531

> <CNNscore>
0.4675605893

> <CNNaffinity>
5.3571782112

> <CNN_VS>
2.5048053265

> <CNNaffinity_variance>
0.3270105124

$$$$
176870


 30 32  0  0  0  0  0  0  0  0999 V2000
  -10.4608    2.0880  -26.7800 N   0  0  0  0  0  0  0  0  0  0  0  0
  -10.4503    1.7542  -24.3935 N   0  0  0  0  0  0  0  0  0  0  0  0
   -8.9710    0.4753  -25.8146 C   0  0  0  0  0  0  0  0  0  0  0  0
   -9.5033    1.1548  -26.9226 C   0  0  0  0  0  0  0  0  0  0  0  0
   -7.4923   -0.8015  -27.2469 C   0  0  0  0  0  0  0  0  0  0  0  0
   -8.0113   -0.1356  -28.3516 C   0  0  0  0  0  0  0  0  0  0  0  0
   -7.9701   -0.4984  -25.9757 C   0  0  0  0  0  0  0  0  0  0  0  0
   -9.4921    0.8253  -24.5720 C   0  0  0  0  0  0  0  0  0  0  0  0
   -9.0066    0.8317  -28.1831 C   0  0  0  0  0  0  0  0  0  0  0  0
  -10.8825    2.3367  -25.5236 C   0  0  0  0  0  0  0  0  0  0  0  0
   -9.0039    0.1822  -23.4073 N   0  0  0  0  0  0  0  0  0  0  0  0
   -9.2630   -0.7995  -23.3613 H   0  0  0  0  0  0  0  0  0  0  0  0
   -8.0267    0.5419  -22.4659 C   0  0  0  0  0  0  0  0  0  0  0  0
   -8.2176    1.6603  -21.6544 C   0  0  0  0  0  0  0  0  0  0  0  0
   -6.8645   -0.2194  -22.3421 C   0  0  0  0  0  0  0  0  0  0  0  0
   -7.2462    2.0172  -20.7192 C   0  0  0  0  0  0  0  0  0  0  0  0
   -5.8932    0.1375  -21.4068 C   0  0  0  0  0  0  0  0  0  0  0  0
   -6.0839    1.2560  -20.5955 C   0  0  0  0  0  0  0  0  0  0  0  0
   -7.4410    3.1628  -19.8878 C   0  0  0  0  0  0  0  0  0  0  0  0
   -7.6048    4.1255  -19.1889 C   0  0  0  0  0  0  0  0  0  0  0  0
   -6.5218   -1.7445  -27.3957 O   0  0  0  0  0  0  0  0  0  0  0  0
   -6.8164   -3.0588  -26.9252 C   0  0  0  0  0  0  0  0  0  0  0  0
   -5.8840   -4.0464  -27.5998 C   0  0  0  0  0  0  0  0  0  0  0  0
   -4.6698   -3.3847  -27.9336 O   0  0  0  0  0  0  0  0  0  0  0  0
   -3.9410   -4.1010  -28.9207 C   0  0  0  0  0  0  0  0  0  0  0  0
   -7.5580   -0.4162  -29.6055 O   0  0  0  0  0  0  0  0  0  0  0  0
   -6.4534    0.3498  -30.0817 C   0  0  0  0  0  0  0  0  0  0  0  0
   -6.0311   -0.1812  -31.4380 C   0  0  0  0  0  0  0  0  0  0  0  0
   -6.6373    0.6079  -32.4545 O   0  0  0  0  0  0  0  0  0  0  0  0
   -7.5635   -0.1507  -33.2196 C   0  0  0  0  0  0  0  0  0  0  0  0
 21  5  1  0
 21 22  1  0
 26  6  1  0
 26 27  1  0
 24 23  1  0
 24 25  1  0
 29 28  1  0
 29 30  1  0
 11  8  1  0
 11 13  1  0
 11 12  1  0
  1  4  2  0
  1 10  1  0
  2  8  1  0
  2 10  2  0
  3  4  1  0
  3  7  1  0
  3  8  2  0
  4  9  1  0
  5  6  1  0
  5  7  2  0
  6  9  2  0
 22 23  1  0
 13 14  2  0
 13 15  1  0
 27 28  1  0
 14 16  1  0
 15 17  2  0
 16 18  2  0
 16 19  1  0
 17 18  1  0
 19 20  3  0
M  END
> <PUBCHEM_COMPOUND_CID>
176870

> <PUBCHEM_CONFORMER_RMSD>
1

> <PUBCHEM_CONFORMER_DIVERSEORDER>
2
33
38
31
11
15
35
8
30
34
26
17
40
39
24
9
21
3
10
29
13
7
36
4
22
5
14
23
18
1
20
25
28
19
12
37
16
6
27
32

> <PUBCHEM_MMFF94_PARTIAL_CHARGES>
37
1 -0.36
10 0.08
11 0.08
12 -0.15
13 0.41
14 -0.15
15 0.28
16 0.1
17 0.28
18 0.47
19 0.28
2 -0.36
20 0.28
21 -0.15
22 -0.15
23 0.07
24 -0.15
25 -0.15
26 0.28
27 0.28
28 -0.07
29 -0.18
3 -0.56
30 0.15
31 0.15
32 0.4
37 0.15
4 -0.56
42 0.15
43 0.15
44 0.15
45 0.15
5 -0.6
52 0.18
6 -0.62
7 -0.62
9 0.31

> <PUBCHEM_EFFECTIVE_ROTOR_COUNT>
10

> <PUBCHEM_PHARMACOPHORE_FEATURES>
11
1 1 acceptor
1 2 acceptor
1 29 hydrophobe
1 3 acceptor
1 4 acceptor
1 5 donor
3 5 7 13 cation
3 6 7 18 cation
6 16 21 22 23 24 25 rings
6 6 7 8 9 13 18 rings
6 8 9 10 11 12 14 rings

> <PUBCHEM_HEAVY_ATOM_COUNT>
29

> <PUBCHEM_ATOM_DEF_STEREO_COUNT>
0

> <PUBCHEM_ATOM_UDEF_STEREO_COUNT>
0

> <PUBCHEM_BOND_DEF_STEREO_COUNT>
0

> <PUBCHEM_BOND_UDEF_STEREO_COUNT>
0

> <PUBCHEM_ISOTOPIC_ATOM_COUNT>
0

> <PUBCHEM_COMPONENT_COUNT>
1

> <PUBCHEM_CACTVS_TAUTO_COUNT>
3

> <PUBCHEM_CONFORMER_ID>
0002B2E600000002

> <PUBCHEM_MMFF94_ENERGY>
109.0345

> <PUBCHEM_FEATURE_SELFOVERLAP>
56.004

> <PUBCHEM_SHAPE_FINGERPRINT>
10050765 1 18265903634409981085
10319926 262 18341897415355152619
1100329 8 18410580586859225941
11135609 12 18339077193841987016
12035758 1 18341335517911506697
12107183 9 18410301306964043347
13140716 1 18341053003157227613
14866123 147 18335989735686148763
15042514 8 18410300215899931757
15131766 46 15624785411136496104
15537594 2 17894632517921483410
1813 80 17967535628270432548
18603816 31 16588306111714570659
20028762 73 18202569458605911511
21033648 29 17560222700922275914
21267235 1 18340215076997820492
21521239 73 13695593226494534760
21792934 111 18271802363463215817
22122407 14 15697993046696727122
23559900 14 18340486767717355157
23569914 152 12110548262754726986
3004659 81 18114474383490966340
3178227 256 18336283258119562097
335352 9 18411426098732582533
3383291 50 18411139121966439187
3882209 13 17264378412770275454
397830 11 18130503136730142786
50009960 94 17684628202304312418
5104073 3 18340486784702110729
5486654 36 18334299802929227327

> <PUBCHEM_SHAPE_MULTIPOLES>
558.39
18.56
3.67
1.58
0.91
1.25
1.1
7.15
9.51
4.62
0.05
-3.57
0.24
1.11

> <PUBCHEM_SHAPE_SELFOVERLAP>
1186.285

> <PUBCHEM_SHAPE_VOLUME>
308.9

> <PUBCHEM_COORDINATE_TYPE>
2
5
10

> <minimizedAffinity>
-5.30067

> <CNNscore>
0.4002253711

> <CNNaffinity>
5.3438243866

> <CNN_VS>
2.1387341022

> <CNNaffinity_variance>
1.1938309669

$$$$
176870


 30 32  0  0  0  0  0  0  0  0999 V2000
   -9.8387   -2.9530  -22.2872 N   0  0  0  0  0  0  0  0  0  0  0  0
  -10.0300   -0.8047  -21.2124 N   0  0  0  0  0  0  0  0  0  0  0  0
   -8.6637   -1.0667  -23.1893 C   0  0  0  0  0  0  0  0  0  0  0  0
   -9.0194   -2.4252  -23.2137 C   0  0  0  0  0  0  0  0  0  0  0  0
   -7.2969   -1.3392  -25.1706 C   0  0  0  0  0  0  0  0  0  0  0  0
   -7.6418   -2.6857  -25.2055 C   0  0  0  0  0  0  0  0  0  0  0  0
   -7.8064   -0.5259  -24.1632 C   0  0  0  0  0  0  0  0  0  0  0  0
   -9.2073   -0.3087  -22.1558 C   0  0  0  0  0  0  0  0  0  0  0  0
   -8.4951   -3.2161  -24.2333 C   0  0  0  0  0  0  0  0  0  0  0  0
  -10.2992   -2.1144  -21.3369 C   0  0  0  0  0  0  0  0  0  0  0  0
   -8.8937    1.0704  -22.0660 N   0  0  0  0  0  0  0  0  0  0  0  0
   -9.5460    1.6570  -22.5791 H   0  0  0  0  0  0  0  0  0  0  0  0
   -8.0521    1.7964  -21.2085 C   0  0  0  0  0  0  0  0  0  0  0  0
   -8.5527    2.8880  -20.4989 C   0  0  0  0  0  0  0  0  0  0  0  0
   -6.7149    1.4259  -21.0662 C   0  0  0  0  0  0  0  0  0  0  0  0
   -7.7160    3.6091  -19.6471 C   0  0  0  0  0  0  0  0  0  0  0  0
   -5.8782    2.1469  -20.2143 C   0  0  0  0  0  0  0  0  0  0  0  0
   -6.3788    3.2386  -19.5049 C   0  0  0  0  0  0  0  0  0  0  0  0
   -8.2281    4.7275  -18.9201 C   0  0  0  0  0  0  0  0  0  0  0  0
   -8.6585    5.6673  -18.3090 C   0  0  0  0  0  0  0  0  0  0  0  0
   -6.4683   -0.8087  -26.1115 O   0  0  0  0  0  0  0  0  0  0  0  0
   -7.0749   -0.3029  -27.2996 C   0  0  0  0  0  0  0  0  0  0  0  0
   -6.1739    0.7578  -27.9022 C   0  0  0  0  0  0  0  0  0  0  0  0
   -4.8178    0.4194  -27.6380 O   0  0  0  0  0  0  0  0  0  0  0  0
   -4.1301    0.0581  -28.8277 C   0  0  0  0  0  0  0  0  0  0  0  0
   -7.1548   -3.5004  -26.1831 O   0  0  0  0  0  0  0  0  0  0  0  0
   -6.5051   -4.6987  -25.7639 C   0  0  0  0  0  0  0  0  0  0  0  0
   -7.1656   -5.8831  -26.4426 C   0  0  0  0  0  0  0  0  0  0  0  0
   -6.3322   -7.0265  -26.2952 O   0  0  0  0  0  0  0  0  0  0  0  0
   -5.4679   -6.8997  -25.1746 C   0  0  0  0  0  0  0  0  0  0  0  0
 21  5  1  0
 21 22  1  0
 26  6  1  0
 26 27  1  0
 24 23  1  0
 24 25  1  0
 29 28  1  0
 29 30  1  0
 11  8  1  0
 11 13  1  0
 11 12  1  0
  1  4  2  0
  1 10  1  0
  2  8  1  0
  2 10  2  0
  3  4  1  0
  3  7  1  0
  3  8  2  0
  4  9  1  0
  5  6  1  0
  5  7  2  0
  6  9  2  0
 22 23  1  0
 13 14  2  0
 13 15  1  0
 27 28  1  0
 14 16  1  0
 15 17  2  0
 16 18  2  0
 16 19  1  0
 17 18  1  0
 19 20  3  0
M  END
> <PUBCHEM_COMPOUND_CID>
176870

> <PUBCHEM_CONFORMER_RMSD>
1

> <PUBCHEM_CONFORMER_DIVERSEORDER>
2
33
38
31
11
15
35
8
30
34
26
17
40
39
24
9
21
3
10
29
13
7
36
4
22
5
14
23
18
1
20
25
28
19
12
37
16
6
27
32

> <PUBCHEM_MMFF94_PARTIAL_CHARGES>
37
1 -0.36
10 0.08
11 0.08
12 -0.15
13 0.41
14 -0.15
15 0.28
16 0.1
17 0.28
18 0.47
19 0.28
2 -0.36
20 0.28
21 -0.15
22 -0.15
23 0.07
24 -0.15
25 -0.15
26 0.28
27 0.28
28 -0.07
29 -0.18
3 -0.56
30 0.15
31 0.15
32 0.4
37 0.15
4 -0.56
42 0.15
43 0.15
44 0.15
45 0.15
5 -0.6
52 0.18
6 -0.62
7 -0.62
9 0.31

> <PUBCHEM_EFFECTIVE_ROTOR_COUNT>
10

> <PUBCHEM_PHARMACOPHORE_FEATURES>
11
1 1 acceptor
1 2 acceptor
1 29 hydrophobe
1 3 acceptor
1 4 acceptor
1 5 donor
3 5 7 13 cation
3 6 7 18 cation
6 16 21 22 23 24 25 rings
6 6 7 8 9 13 18 rings
6 8 9 10 11 12 14 rings

> <PUBCHEM_HEAVY_ATOM_COUNT>
29

> <PUBCHEM_ATOM_DEF_STEREO_COUNT>
0

> <PUBCHEM_ATOM_UDEF_STEREO_COUNT>
0

> <PUBCHEM_BOND_DEF_STEREO_COUNT>
0

> <PUBCHEM_BOND_UDEF_STEREO_COUNT>
0

> <PUBCHEM_ISOTOPIC_ATOM_COUNT>
0

> <PUBCHEM_COMPONENT_COUNT>
1

> <PUBCHEM_CACTVS_TAUTO_COUNT>
3

> <PUBCHEM_CONFORMER_ID>
0002B2E600000002

> <PUBCHEM_MMFF94_ENERGY>
109.0345

> <PUBCHEM_FEATURE_SELFOVERLAP>
56.004

> <PUBCHEM_SHAPE_FINGERPRINT>
10050765 1 18265903634409981085
10319926 262 18341897415355152619
1100329 8 18410580586859225941
11135609 12 18339077193841987016
12035758 1 18341335517911506697
12107183 9 18410301306964043347
13140716 1 18341053003157227613
14866123 147 18335989735686148763
15042514 8 18410300215899931757
15131766 46 15624785411136496104
15537594 2 17894632517921483410
1813 80 17967535628270432548
18603816 31 16588306111714570659
20028762 73 18202569458605911511
21033648 29 17560222700922275914
21267235 1 18340215076997820492
21521239 73 13695593226494534760
21792934 111 18271802363463215817
22122407 14 15697993046696727122
23559900 14 18340486767717355157
23569914 152 12110548262754726986
3004659 81 18114474383490966340
3178227 256 18336283258119562097
335352 9 18411426098732582533
3383291 50 18411139121966439187
3882209 13 17264378412770275454
397830 11 18130503136730142786
50009960 94 17684628202304312418
5104073 3 18340486784702110729
5486654 36 18334299802929227327

> <PUBCHEM_SHAPE_MULTIPOLES>
558.39
18.56
3.67
1.58
0.91
1.25
1.1
7.15
9.51
4.62
0.05
-3.57
0.24
1.11

> <PUBCHEM_SHAPE_SELFOVERLAP>
1186.285

> <PUBCHEM_SHAPE_VOLUME>
308.9

> <PUBCHEM_COORDINATE_TYPE>
2
5
10

> <minimizedAffinity>
-6.01869

> <CNNscore>
0.3681608737

> <CNNaffinity>
5.4025325775

> <CNN_VS>
1.9890011549

> <CNNaffinity_variance>
0.2773320973

$$$$
176870


 30 32  0  0  0  0  0  0  0  0999 V2000
  -17.0350  -10.4685   -8.9132 N   0  0  0  0  0  0  0  0  0  0  0  0
  -18.1153  -10.0501   -6.8002 N   0  0  0  0  0  0  0  0  0  0  0  0
  -17.5590   -8.2169   -8.2744 C   0  0  0  0  0  0  0  0  0  0  0  0
  -17.0265   -9.1503   -9.1788 C   0  0  0  0  0  0  0  0  0  0  0  0
  -16.9975   -6.3863   -9.7584 C   0  0  0  0  0  0  0  0  0  0  0  0
  -16.4673   -7.3007  -10.6618 C   0  0  0  0  0  0  0  0  0  0  0  0
  -17.5447   -6.8411   -8.5627 C   0  0  0  0  0  0  0  0  0  0  0  0
  -18.0907   -8.7372   -7.0976 C   0  0  0  0  0  0  0  0  0  0  0  0
  -16.4854   -8.6674  -10.3678 C   0  0  0  0  0  0  0  0  0  0  0  0
  -17.5785  -10.8467   -7.7385 C   0  0  0  0  0  0  0  0  0  0  0  0
  -18.6463   -7.8561   -6.1368 N   0  0  0  0  0  0  0  0  0  0  0  0
  -19.6023   -7.5882   -6.3542 H   0  0  0  0  0  0  0  0  0  0  0  0
  -18.2553   -7.5060   -4.8348 C   0  0  0  0  0  0  0  0  0  0  0  0
  -16.9234   -7.6461   -4.4447 C   0  0  0  0  0  0  0  0  0  0  0  0
  -19.1991   -7.0180   -3.9311 C   0  0  0  0  0  0  0  0  0  0  0  0
  -16.5356   -7.2982   -3.1507 C   0  0  0  0  0  0  0  0  0  0  0  0
  -18.8112   -6.6699   -2.6373 C   0  0  0  0  0  0  0  0  0  0  0  0
  -17.4794   -6.8102   -2.2471 C   0  0  0  0  0  0  0  0  0  0  0  0
  -15.1715   -7.4416   -2.7504 C   0  0  0  0  0  0  0  0  0  0  0  0
  -14.0250   -7.5621   -2.4141 C   0  0  0  0  0  0  0  0  0  0  0  0
  -16.9882   -5.0528  -10.0319 O   0  0  0  0  0  0  0  0  0  0  0  0
  -18.2226   -4.4654  -10.4402 C   0  0  0  0  0  0  0  0  0  0  0  0
  -18.3785   -3.1188   -9.7602 C   0  0  0  0  0  0  0  0  0  0  0  0
  -17.0927   -2.6302   -9.3980 O   0  0  0  0  0  0  0  0  0  0  0  0
  -17.1776   -1.3616   -8.7637 C   0  0  0  0  0  0  0  0  0  0  0  0
  -15.9268   -6.8777  -11.8388 O   0  0  0  0  0  0  0  0  0  0  0  0
  -16.5670   -7.3090  -13.0379 C   0  0  0  0  0  0  0  0  0  0  0  0
  -15.8019   -6.7670  -14.2298 C   0  0  0  0  0  0  0  0  0  0  0  0
  -16.3953   -7.2595  -15.4251 O   0  0  0  0  0  0  0  0  0  0  0  0
  -16.1673   -8.6529  -15.5837 C   0  0  0  0  0  0  0  0  0  0  0  0
 21  5  1  0
 21 22  1  0
 26  6  1  0
 26 27  1  0
 24 23  1  0
 24 25  1  0
 29 28  1  0
 29 30  1  0
 11  8  1  0
 11 13  1  0
 11 12  1  0
  1  4  2  0
  1 10  1  0
  2  8  1  0
  2 10  2  0
  3  4  1  0
  3  7  1  0
  3  8  2  0
  4  9  1  0
  5  6  1  0
  5  7  2  0
  6  9  2  0
 22 23  1  0
 13 14  2  0
 13 15  1  0
 27 28  1  0
 14 16  1  0
 15 17  2  0
 16 18  2  0
 16 19  1  0
 17 18  1  0
 19 20  3  0
M  END
> <PUBCHEM_COMPOUND_CID>
176870

> <PUBCHEM_CONFORMER_RMSD>
1

> <PUBCHEM_CONFORMER_DIVERSEORDER>
2
33
38
31
11
15
35
8
30
34
26
17
40
39
24
9
21
3
10
29
13
7
36
4
22
5
14
23
18
1
20
25
28
19
12
37
16
6
27
32

> <PUBCHEM_MMFF94_PARTIAL_CHARGES>
37
1 -0.36
10 0.08
11 0.08
12 -0.15
13 0.41
14 -0.15
15 0.28
16 0.1
17 0.28
18 0.47
19 0.28
2 -0.36
20 0.28
21 -0.15
22 -0.15
23 0.07
24 -0.15
25 -0.15
26 0.28
27 0.28
28 -0.07
29 -0.18
3 -0.56
30 0.15
31 0.15
32 0.4
37 0.15
4 -0.56
42 0.15
43 0.15
44 0.15
45 0.15
5 -0.6
52 0.18
6 -0.62
7 -0.62
9 0.31

> <PUBCHEM_EFFECTIVE_ROTOR_COUNT>
10

> <PUBCHEM_PHARMACOPHORE_FEATURES>
11
1 1 acceptor
1 2 acceptor
1 29 hydrophobe
1 3 acceptor
1 4 acceptor
1 5 donor
3 5 7 13 cation
3 6 7 18 cation
6 16 21 22 23 24 25 rings
6 6 7 8 9 13 18 rings
6 8 9 10 11 12 14 rings

> <PUBCHEM_HEAVY_ATOM_COUNT>
29

> <PUBCHEM_ATOM_DEF_STEREO_COUNT>
0

> <PUBCHEM_ATOM_UDEF_STEREO_COUNT>
0

> <PUBCHEM_BOND_DEF_STEREO_COUNT>
0

> <PUBCHEM_BOND_UDEF_STEREO_COUNT>
0

> <PUBCHEM_ISOTOPIC_ATOM_COUNT>
0

> <PUBCHEM_COMPONENT_COUNT>
1

> <PUBCHEM_CACTVS_TAUTO_COUNT>
3

> <PUBCHEM_CONFORMER_ID>
0002B2E600000002

> <PUBCHEM_MMFF94_ENERGY>
109.0345

> <PUBCHEM_FEATURE_SELFOVERLAP>
56.004

> <PUBCHEM_SHAPE_FINGERPRINT>
10050765 1 18265903634409981085
10319926 262 18341897415355152619
1100329 8 18410580586859225941
11135609 12 18339077193841987016
12035758 1 18341335517911506697
12107183 9 18410301306964043347
13140716 1 18341053003157227613
14866123 147 18335989735686148763
15042514 8 18410300215899931757
15131766 46 15624785411136496104
15537594 2 17894632517921483410
1813 80 17967535628270432548
18603816 31 16588306111714570659
20028762 73 18202569458605911511
21033648 29 17560222700922275914
21267235 1 18340215076997820492
21521239 73 13695593226494534760
21792934 111 18271802363463215817
22122407 14 15697993046696727122
23559900 14 18340486767717355157
23569914 152 12110548262754726986
3004659 81 18114474383490966340
3178227 256 18336283258119562097
335352 9 18411426098732582533
3383291 50 18411139121966439187
3882209 13 17264378412770275454
397830 11 18130503136730142786
50009960 94 17684628202304312418
5104073 3 18340486784702110729
5486654 36 18334299802929227327

> <PUBCHEM_SHAPE_MULTIPOLES>
558.39
18.56
3.67
1.58
0.91
1.25
1.1
7.15
9.51
4.62
0.05
-3.57
0.24
1.11

> <PUBCHEM_SHAPE_SELFOVERLAP>
1186.285

> <PUBCHEM_SHAPE_VOLUME>
308.9

> <PUBCHEM_COORDINATE_TYPE>
2
5
10

> <minimizedAffinity>
-4.94968

> <CNNscore>
0.3377848268

> <CNNaffinity>
5.2016506195

> <CNN_VS>
1.7570387125

> <CNNaffinity_variance>
0.3142362535

$$$$
176870


 30 32  0  0  0  0  0  0  0  0999 V2000
    0.8163   -3.4121   -7.5793 N   0  0  0  0  0  0  0  0  0  0  0  0
    1.3747   -4.3676   -5.4387 N   0  0  0  0  0  0  0  0  0  0  0  0
    3.0682   -3.2670   -6.7670 C   0  0  0  0  0  0  0  0  0  0  0  0
    2.0898   -3.0122   -7.7418 C   0  0  0  0  0  0  0  0  0  0  0  0
    4.7585   -2.1623   -8.1052 C   0  0  0  0  0  0  0  0  0  0  0  0
    3.7988   -1.9040   -9.0776 C   0  0  0  0  0  0  0  0  0  0  0  0
    4.3966   -2.8441   -6.9476 C   0  0  0  0  0  0  0  0  0  0  0  0
    2.6408   -3.9530   -5.6334 C   0  0  0  0  0  0  0  0  0  0  0  0
    2.4797   -2.3278   -8.8905 C   0  0  0  0  0  0  0  0  0  0  0  0
    0.5280   -4.0682   -6.4371 C   0  0  0  0  0  0  0  0  0  0  0  0
    3.5719   -4.2462   -4.6061 N   0  0  0  0  0  0  0  0  0  0  0  0
    3.5112   -3.6008   -3.8233 H   0  0  0  0  0  0  0  0  0  0  0  0
    4.3510   -5.3808   -4.3295 C   0  0  0  0  0  0  0  0  0  0  0  0
    3.7563   -6.5206   -3.7882 C   0  0  0  0  0  0  0  0  0  0  0  0
    5.7200   -5.3681   -4.5963 C   0  0  0  0  0  0  0  0  0  0  0  0
    4.5310   -7.6476   -3.5136 C   0  0  0  0  0  0  0  0  0  0  0  0
    6.4946   -6.4952   -4.3219 C   0  0  0  0  0  0  0  0  0  0  0  0
    5.9001   -7.6349   -3.7803 C   0  0  0  0  0  0  0  0  0  0  0  0
    3.9226   -8.8154   -2.9589 C   0  0  0  0  0  0  0  0  0  0  0  0
    3.4112   -9.7968   -2.4927 C   0  0  0  0  0  0  0  0  0  0  0  0
    6.0463   -1.7543   -8.2731 O   0  0  0  0  0  0  0  0  0  0  0  0
    7.0233   -2.3114   -7.3953 C   0  0  0  0  0  0  0  0  0  0  0  0
    8.3821   -2.2532   -8.0664 C   0  0  0  0  0  0  0  0  0  0  0  0
    9.0555   -1.0718   -7.6490 O   0  0  0  0  0  0  0  0  0  0  0  0
   10.0844   -0.7098   -8.5596 C   0  0  0  0  0  0  0  0  0  0  0  0
    4.1308   -1.2376  -10.2188 O   0  0  0  0  0  0  0  0  0  0  0  0
    3.0571   -0.7327  -11.0099 C   0  0  0  0  0  0  0  0  0  0  0  0
    3.3997    0.6708  -11.4711 C   0  0  0  0  0  0  0  0  0  0  0  0
    2.2965    1.5287  -11.2056 O   0  0  0  0  0  0  0  0  0  0  0  0
    1.1620    0.7963  -10.7639 C   0  0  0  0  0  0  0  0  0  0  0  0
 21  5  1  0
 21 22  1  0
 26  6  1  0
 26 27  1  0
 24 23  1  0
 24 25  1  0
 29 28  1  0
 29 30  1  0
 11  8  1  0
 11 13  1  0
 11 12  1  0
  1  4  2  0
  1 10  1  0
  2  8  1  0
  2 10  2  0
  3  4  1  0
  3  7  1  0
  3  8  2  0
  4  9  1  0
  5  6  1  0
  5  7  2  0
  6  9  2  0
 22 23  1  0
 13 14  2  0
 13 15  1  0
 27 28  1  0
 14 16  1  0
 15 17  2  0
 16 18  2  0
 16 19  1  0
 17 18  1  0
 19 20  3  0
M  END
> <PUBCHEM_COMPOUND_CID>
176870

> <PUBCHEM_CONFORMER_RMSD>
1

> <PUBCHEM_CONFORMER_DIVERSEORDER>
2
33
38
31
11
15
35
8
30
34
26
17
40
39
24
9
21
3
10
29
13
7
36
4
22
5
14
23
18
1
20
25
28
19
12
37
16
6
27
32

> <PUBCHEM_MMFF94_PARTIAL_CHARGES>
37
1 -0.36
10 0.08
11 0.08
12 -0.15
13 0.41
14 -0.15
15 0.28
16 0.1
17 0.28
18 0.47
19 0.28
2 -0.36
20 0.28
21 -0.15
22 -0.15
23 0.07
24 -0.15
25 -0.15
26 0.28
27 0.28
28 -0.07
29 -0.18
3 -0.56
30 0.15
31 0.15
32 0.4
37 0.15
4 -0.56
42 0.15
43 0.15
44 0.15
45 0.15
5 -0.6
52 0.18
6 -0.62
7 -0.62
9 0.31

> <PUBCHEM_EFFECTIVE_ROTOR_COUNT>
10

> <PUBCHEM_PHARMACOPHORE_FEATURES>
11
1 1 acceptor
1 2 acceptor
1 29 hydrophobe
1 3 acceptor
1 4 acceptor
1 5 donor
3 5 7 13 cation
3 6 7 18 cation
6 16 21 22 23 24 25 rings
6 6 7 8 9 13 18 rings
6 8 9 10 11 12 14 rings

> <PUBCHEM_HEAVY_ATOM_COUNT>
29

> <PUBCHEM_ATOM_DEF_STEREO_COUNT>
0

> <PUBCHEM_ATOM_UDEF_STEREO_COUNT>
0

> <PUBCHEM_BOND_DEF_STEREO_COUNT>
0

> <PUBCHEM_BOND_UDEF_STEREO_COUNT>
0

> <PUBCHEM_ISOTOPIC_ATOM_COUNT>
0

> <PUBCHEM_COMPONENT_COUNT>
1

> <PUBCHEM_CACTVS_TAUTO_COUNT>
3

> <PUBCHEM_CONFORMER_ID>
0002B2E600000002

> <PUBCHEM_MMFF94_ENERGY>
109.0345

> <PUBCHEM_FEATURE_SELFOVERLAP>
56.004

> <PUBCHEM_SHAPE_FINGERPRINT>
10050765 1 18265903634409981085
10319926 262 18341897415355152619
1100329 8 18410580586859225941
11135609 12 18339077193841987016
12035758 1 18341335517911506697
12107183 9 18410301306964043347
13140716 1 18341053003157227613
14866123 147 18335989735686148763
15042514 8 18410300215899931757
15131766 46 15624785411136496104
15537594 2 17894632517921483410
1813 80 17967535628270432548
18603816 31 16588306111714570659
20028762 73 18202569458605911511
21033648 29 17560222700922275914
21267235 1 18340215076997820492
21521239 73 13695593226494534760
21792934 111 18271802363463215817
22122407 14 15697993046696727122
23559900 14 18340486767717355157
23569914 152 12110548262754726986
3004659 81 18114474383490966340
3178227 256 18336283258119562097
335352 9 18411426098732582533
3383291 50 18411139121966439187
3882209 13 17264378412770275454
397830 11 18130503136730142786
50009960 94 17684628202304312418
5104073 3 18340486784702110729
5486654 36 18334299802929227327

> <PUBCHEM_SHAPE_MULTIPOLES>
558.39
18.56
3.67
1.58
0.91
1.25
1.1
7.15
9.51
4.62
0.05
-3.57
0.24
1.11

> <PUBCHEM_SHAPE_SELFOVERLAP>
1186.285

> <PUBCHEM_SHAPE_VOLUME>
308.9

> <PUBCHEM_COORDINATE_TYPE>
2
5
10

> <minimizedAffinity>
-7.26698

> <CNNscore>
0.2853855491

> <CNNaffinity>
6.1325569153

> <CNN_VS>
1.7501431704

> <CNNaffinity_variance>
0.1920794994

$$$$
