10184653


 36 39  0  0  0  0  0  0  0  0999 V2000
   -9.1966    5.3822   -8.6086 N   0  0  0  0  0  0  0  0  0  0  0  0
   -8.5802    4.5916  -10.7998 N   0  0  0  0  0  0  0  0  0  0  0  0
  -10.4774    2.5980   -6.6031 C   0  0  0  0  0  0  0  0  0  0  0  0
  -10.3752    1.5402   -7.4997 C   0  0  0  0  0  0  0  0  0  0  0  0
  -10.0791    3.8823   -6.9858 C   0  0  0  0  0  0  0  0  0  0  0  0
   -9.4762    3.0637   -9.1550 C   0  0  0  0  0  0  0  0  0  0  0  0
   -9.5746    4.1403   -8.2582 C   0  0  0  0  0  0  0  0  0  0  0  0
   -9.8747    1.7694   -8.7776 C   0  0  0  0  0  0  0  0  0  0  0  0
   -8.9678    3.3605  -10.4164 C   0  0  0  0  0  0  0  0  0  0  0  0
   -8.7196    5.5404   -9.8600 C   0  0  0  0  0  0  0  0  0  0  0  0
  -13.1179    0.3814   -7.1145 O   0  0  0  0  0  0  0  0  0  0  0  0
  -10.7687    0.2512   -7.1336 N   0  0  0  0  0  0  0  0  0  0  0  0
  -12.0709   -0.2381   -6.9678 C   0  0  0  0  0  0  0  0  0  0  0  0
   -9.9998   -0.3962   -6.9723 H   0  0  0  0  0  0  0  0  0  0  0  0
  -12.0708   -1.6773   -6.5692 C   0  0  0  0  0  0  0  0  0  0  0  0
  -11.1553   -2.1451   -5.7088 C   0  0  0  0  0  0  0  0  0  0  0  0
  -11.1044   -3.5751   -5.2602 C   0  0  0  0  0  0  0  0  0  0  0  0
   -9.8227   -4.1931   -5.5841 N   0  0  0  0  0  0  0  0  0  0  0  0
   -9.9514   -5.6501   -5.6309 C   0  0  0  0  0  0  0  0  0  0  0  0
   -9.3153   -3.6862   -6.8600 C   0  0  0  0  0  0  0  0  0  0  0  0
   -8.8395    2.3254  -11.3754 N   0  0  0  0  0  0  0  0  0  0  0  0
   -7.8769    2.0257  -11.5043 H   0  0  0  0  0  0  0  0  0  0  0  0
  -10.9636    2.9811  -15.9905 Cl  0  0  0  0  0  0  0  0  0  0  0  0
  -12.2544    0.4070  -15.2855 F   0  0  0  0  0  0  0  0  0  0  0  0
   -9.7050    1.8424  -12.3698 C   0  0  0  0  0  0  0  0  0  0  0  0
   -9.8854    2.5652  -13.5492 C   0  0  0  0  0  0  0  0  0  0  0  0
  -10.3846    0.6395  -12.1781 C   0  0  0  0  0  0  0  0  0  0  0  0
  -10.7452    2.0849  -14.5370 C   0  0  0  0  0  0  0  0  0  0  0  0
  -11.2446    0.1594  -13.1659 C   0  0  0  0  0  0  0  0  0  0  0  0
  -11.4249    0.8820  -14.3453 C   0  0  0  0  0  0  0  0  0  0  0  0
  -10.9643    2.4054   -5.3444 O   0  0  0  0  0  0  0  0  0  0  0  0
  -11.0060    2.3222   -2.3119 O   0  0  0  0  0  0  0  0  0  0  0  0
  -10.1256    1.7127   -4.4263 C   0  0  0  0  0  0  0  0  0  0  0  0
   -9.1714    2.6791   -3.7682 C   0  0  0  0  0  0  0  0  0  0  0  0
  -10.9617    1.2380   -3.2557 C   0  0  0  0  0  0  0  0  0  0  0  0
  -10.0443    3.3114   -2.7026 C   0  0  0  0  0  0  0  0  0  0  0  0
 23 28  1  0
 24 30  1  0
 32 35  1  0
 32 36  1  0
 31 33  1  0
 31  3  1  0
 11 13  2  0
 12  4  1  0
 12 13  1  0
 12 14  1  0
  1  7  2  0
  1 10  1  0
 21  9  1  0
 21 25  1  0
 21 22  1  0
  2  9  1  0
  2 10  2  0
 18 17  1  0
 18 19  1  0
 18 20  1  0
 33 34  1  0
 33 35  1  0
 34 36  1  0
  3  4  1  0
  3  5  2  0
  4  8  2  0
  5  7  1  0
  6  7  1  0
  6  8  1  0
  6  9  2  0
 13 15  1  0
 25 26  2  0
 25 27  1  0
 15 16  2  0
 17 16  1  0
 26 28  1  0
 27 29  2  0
 28 30  2  0
 29 30  1  0
M  END
> <PUBCHEM_COMPOUND_CID>
10184653

> <PUBCHEM_CONFORMER_RMSD>
1

> <PUBCHEM_CONFORMER_DIVERSEORDER>
1
55
19
37
62
57
35
28
53
34
56
41
17
51
59
61
43
13
31
50
33
32
60
25
54
27
8
16
20
12
38
65
9
48
40
7
21
44
18
47
10
29
58
4
45
6
15
11
22
63
30
39
52
23
36
26
46
49
64
14
24
42
3
5
2

> <PUBCHEM_MMFF94_PARTIAL_CHARGES>
42
1 -0.18
10 -0.81
11 0.28
13 0.28
14 0.28
15 0.08
16 0.12
17 -0.15
19 0.31
2 -0.19
20 -0.15
21 0.41
22 0.62
23 0.47
24 0.1
25 -0.14
26 0.41
27 -0.29
28 -0.15
29 -0.15
3 -0.56
30 0.18
31 -0.15
32 0.27
33 0.27
34 0.19
4 -0.36
42 0.15
43 0.15
44 0.37
45 0.4
46 0.15
47 0.15
5 -0.57
50 0.15
51 0.15
52 0.15
53 0.15
6 -0.55
7 -0.62
8 -0.6
9 -0.62

> <PUBCHEM_EFFECTIVE_ROTOR_COUNT>
10

> <PUBCHEM_PHARMACOPHORE_FEATURES>
12
1 10 cation
1 3 acceptor
1 4 acceptor
1 5 acceptor
1 6 donor
1 8 donor
3 7 9 23 cation
3 8 9 21 cation
5 3 11 12 13 14 rings
6 15 16 17 18 19 20 rings
6 24 28 29 30 31 34 rings
6 7 9 18 19 21 23 rings

> <PUBCHEM_HEAVY_ATOM_COUNT>
34

> <PUBCHEM_ATOM_DEF_STEREO_COUNT>
1

> <PUBCHEM_ATOM_UDEF_STEREO_COUNT>
0

> <PUBCHEM_BOND_DEF_STEREO_COUNT>
1

> <PUBCHEM_BOND_UDEF_STEREO_COUNT>
0

> <PUBCHEM_ISOTOPIC_ATOM_COUNT>
0

> <PUBCHEM_COMPONENT_COUNT>
1

> <PUBCHEM_CACTVS_TAUTO_COUNT>
6

> <PUBCHEM_CONFORMER_ID>
009B67CD00000001

> <PUBCHEM_MMFF94_ENERGY>
118.3863

> <PUBCHEM_FEATURE_SELFOVERLAP>
61.069

> <PUBCHEM_SHAPE_FINGERPRINT>
10050765 1 18409731725397260590
102385 1 18338237050937012855
10581848 127 18267048157042201945
10675989 125 17765712421274760985
10816530 23 18120663422938000737
10939801 23 17974850889678323372
12107183 9 18190160323388426594
12741549 16 17460587263948438879
12788726 201 18115875276836333234
12925494 130 18339077065050983644
13140716 1 17687186800226601262
13383665 225 18190204393246121460
13540713 4 18271814480219722286
14028597 1 17603577578055265275
14068700 686 18341337759526122742
14190465 44 18336823074577052925
14294032 229 18338254728900680980
14394314 77 17618513515589478757
14395042 24 18187930642324558101
14790565 3 18049448033442953445
15400415 2 17976265634705014989
15439362 3 18123748656634030244
19309040 13 18059285444874715076
19427546 62 18049165458685693621
20238998 120 18194403527617411343
23845131 108 18193558857484026109
24771293 8 18127703836151030955
27425 322 17908984301971085317
469060 322 18266194995910524210
550186 72 18265899249300781597
57527585 21 18269534161279665167
6004065 56 17976261562775526063
653340 110 18410019840245178567
9555976 147 18191279677237576986
9777508 108 18337114441401685095
9849439 229 18338796689486291428
9896288 288 18408602587053135962
9961470 85 18268707200098131368

> <PUBCHEM_SHAPE_MULTIPOLES>
651.79
16.98
9.14
1.35
16.63
7.82
0.79
16.53
7.63
-22.03
1.12
1.11
0.38
1.78

> <PUBCHEM_SHAPE_SELFOVERLAP>
1393.544

> <PUBCHEM_SHAPE_VOLUME>
363.9

> <PUBCHEM_COORDINATE_TYPE>
2
5
10

> <minimizedAffinity>
-8.29113

> <CNNscore>
0.8657283187

> <CNNaffinity>
7.8715629578

> <CNN_VS>
6.8146348000

> <CNNaffinity_variance>
0.0528221279

$$$$
10184653


 36 39  0  0  0  0  0  0  0  0999 V2000
   -9.0397    4.0592  -10.5379 N   0  0  0  0  0  0  0  0  0  0  0  0
   -9.4751    5.1504   -8.4340 N   0  0  0  0  0  0  0  0  0  0  0  0
   -9.4717    0.4410  -10.1683 C   0  0  0  0  0  0  0  0  0  0  0  0
   -9.8237    0.3393   -8.8270 C   0  0  0  0  0  0  0  0  0  0  0  0
   -9.2111    1.6938  -10.7315 C   0  0  0  0  0  0  0  0  0  0  0  0
   -9.6505    2.7472   -8.6253 C   0  0  0  0  0  0  0  0  0  0  0  0
   -9.2942    2.8630   -9.9790 C   0  0  0  0  0  0  0  0  0  0  0  0
   -9.9141    1.4911   -8.0517 C   0  0  0  0  0  0  0  0  0  0  0  0
   -9.7231    3.9369   -7.9061 C   0  0  0  0  0  0  0  0  0  0  0  0
   -9.1445    5.1379   -9.7353 C   0  0  0  0  0  0  0  0  0  0  0  0
   -9.2021   -0.6968   -6.0786 O   0  0  0  0  0  0  0  0  0  0  0  0
  -10.0871   -0.9043   -8.2487 N   0  0  0  0  0  0  0  0  0  0  0  0
   -9.7730   -1.3367   -6.9537 C   0  0  0  0  0  0  0  0  0  0  0  0
  -10.5667   -1.5622   -8.8599 H   0  0  0  0  0  0  0  0  0  0  0  0
  -10.2250   -2.7405   -6.7180 C   0  0  0  0  0  0  0  0  0  0  0  0
   -9.8093   -3.4169   -5.6378 C   0  0  0  0  0  0  0  0  0  0  0  0
  -10.2316   -4.8240   -5.3368 C   0  0  0  0  0  0  0  0  0  0  0  0
  -11.1138   -4.8819   -4.1758 N   0  0  0  0  0  0  0  0  0  0  0  0
  -11.0399   -6.1974   -3.5387 C   0  0  0  0  0  0  0  0  0  0  0  0
  -10.7699   -3.8320   -3.2157 C   0  0  0  0  0  0  0  0  0  0  0  0
  -10.0761    3.8996   -6.5344 N   0  0  0  0  0  0  0  0  0  0  0  0
  -10.5496    3.0389   -6.2733 H   0  0  0  0  0  0  0  0  0  0  0  0
  -11.7607    8.5484   -5.1959 Cl  0  0  0  0  0  0  0  0  0  0  0  0
  -10.4245    7.8263   -2.6498 F   0  0  0  0  0  0  0  0  0  0  0  0
  -10.1667    4.8983   -5.5519 C   0  0  0  0  0  0  0  0  0  0  0  0
  -10.8392    6.0891   -5.8270 C   0  0  0  0  0  0  0  0  0  0  0  0
   -9.5839    4.6997   -4.3004 C   0  0  0  0  0  0  0  0  0  0  0  0
  -10.9292    7.0811   -4.8506 C   0  0  0  0  0  0  0  0  0  0  0  0
   -9.6737    5.6919   -3.3239 C   0  0  0  0  0  0  0  0  0  0  0  0
  -10.3463    6.8825   -3.5990 C   0  0  0  0  0  0  0  0  0  0  0  0
   -9.3742   -0.6691  -10.9535 O   0  0  0  0  0  0  0  0  0  0  0  0
  -10.1820   -1.6112  -13.7221 O   0  0  0  0  0  0  0  0  0  0  0  0
  -10.5922   -1.2415  -11.4172 C   0  0  0  0  0  0  0  0  0  0  0  0
  -11.3709   -0.2234  -12.2138 C   0  0  0  0  0  0  0  0  0  0  0  0
  -10.2772   -2.2941  -12.4600 C   0  0  0  0  0  0  0  0  0  0  0  0
  -10.6768   -0.2751  -13.5602 C   0  0  0  0  0  0  0  0  0  0  0  0
 23 28  1  0
 24 30  1  0
 32 35  1  0
 32 36  1  0
 31 33  1  0
 31  3  1  0
 11 13  2  0
 12  4  1  0
 12 13  1  0
 12 14  1  0
  1  7  2  0
  1 10  1  0
 21  9  1  0
 21 25  1  0
 21 22  1  0
  2  9  1  0
  2 10  2  0
 18 17  1  0
 18 19  1  0
 18 20  1  0
 33 34  1  0
 33 35  1  0
 34 36  1  0
  3  4  1  0
  3  5  2  0
  4  8  2  0
  5  7  1  0
  6  7  1  0
  6  8  1  0
  6  9  2  0
 13 15  1  0
 25 26  2  0
 25 27  1  0
 15 16  2  0
 17 16  1  0
 26 28  1  0
 27 29  2  0
 28 30  2  0
 29 30  1  0
M  END
> <PUBCHEM_COMPOUND_CID>
10184653

> <PUBCHEM_CONFORMER_RMSD>
1

> <PUBCHEM_CONFORMER_DIVERSEORDER>
1
55
19
37
62
57
35
28
53
34
56
41
17
51
59
61
43
13
31
50
33
32
60
25
54
27
8
16
20
12
38
65
9
48
40
7
21
44
18
47
10
29
58
4
45
6
15
11
22
63
30
39
52
23
36
26
46
49
64
14
24
42
3
5
2

> <PUBCHEM_MMFF94_PARTIAL_CHARGES>
42
1 -0.18
10 -0.81
11 0.28
13 0.28
14 0.28
15 0.08
16 0.12
17 -0.15
19 0.31
2 -0.19
20 -0.15
21 0.41
22 0.62
23 0.47
24 0.1
25 -0.14
26 0.41
27 -0.29
28 -0.15
29 -0.15
3 -0.56
30 0.18
31 -0.15
32 0.27
33 0.27
34 0.19
4 -0.36
42 0.15
43 0.15
44 0.37
45 0.4
46 0.15
47 0.15
5 -0.57
50 0.15
51 0.15
52 0.15
53 0.15
6 -0.55
7 -0.62
8 -0.6
9 -0.62

> <PUBCHEM_EFFECTIVE_ROTOR_COUNT>
10

> <PUBCHEM_PHARMACOPHORE_FEATURES>
12
1 10 cation
1 3 acceptor
1 4 acceptor
1 5 acceptor
1 6 donor
1 8 donor
3 7 9 23 cation
3 8 9 21 cation
5 3 11 12 13 14 rings
6 15 16 17 18 19 20 rings
6 24 28 29 30 31 34 rings
6 7 9 18 19 21 23 rings

> <PUBCHEM_HEAVY_ATOM_COUNT>
34

> <PUBCHEM_ATOM_DEF_STEREO_COUNT>
1

> <PUBCHEM_ATOM_UDEF_STEREO_COUNT>
0

> <PUBCHEM_BOND_DEF_STEREO_COUNT>
1

> <PUBCHEM_BOND_UDEF_STEREO_COUNT>
0

> <PUBCHEM_ISOTOPIC_ATOM_COUNT>
0

> <PUBCHEM_COMPONENT_COUNT>
1

> <PUBCHEM_CACTVS_TAUTO_COUNT>
6

> <PUBCHEM_CONFORMER_ID>
009B67CD00000001

> <PUBCHEM_MMFF94_ENERGY>
118.3863

> <PUBCHEM_FEATURE_SELFOVERLAP>
61.069

> <PUBCHEM_SHAPE_FINGERPRINT>
10050765 1 18409731725397260590
102385 1 18338237050937012855
10581848 127 18267048157042201945
10675989 125 17765712421274760985
10816530 23 18120663422938000737
10939801 23 17974850889678323372
12107183 9 18190160323388426594
12741549 16 17460587263948438879
12788726 201 18115875276836333234
12925494 130 18339077065050983644
13140716 1 17687186800226601262
13383665 225 18190204393246121460
13540713 4 18271814480219722286
14028597 1 17603577578055265275
14068700 686 18341337759526122742
14190465 44 18336823074577052925
14294032 229 18338254728900680980
14394314 77 17618513515589478757
14395042 24 18187930642324558101
14790565 3 18049448033442953445
15400415 2 17976265634705014989
15439362 3 18123748656634030244
19309040 13 18059285444874715076
19427546 62 18049165458685693621
20238998 120 18194403527617411343
23845131 108 18193558857484026109
24771293 8 18127703836151030955
27425 322 17908984301971085317
469060 322 18266194995910524210
550186 72 18265899249300781597
57527585 21 18269534161279665167
6004065 56 17976261562775526063
653340 110 18410019840245178567
9555976 147 18191279677237576986
9777508 108 18337114441401685095
9849439 229 18338796689486291428
9896288 288 18408602587053135962
9961470 85 18268707200098131368

> <PUBCHEM_SHAPE_MULTIPOLES>
651.79
16.98
9.14
1.35
16.63
7.82
0.79
16.53
7.63
-22.03
1.12
1.11
0.38
1.78

> <PUBCHEM_SHAPE_SELFOVERLAP>
1393.544

> <PUBCHEM_SHAPE_VOLUME>
363.9

> <PUBCHEM_COORDINATE_TYPE>
2
5
10

> <minimizedAffinity>
-8.87735

> <CNNscore>
0.7333038449

> <CNNaffinity>
7.7835984230

> <CNN_VS>
5.7077426910

> <CNNaffinity_variance>
0.0364631452

$$$$
10184653


 36 39  0  0  0  0  0  0  0  0999 V2000
  -10.9901   -0.0057   -3.9616 N   0  0  0  0  0  0  0  0  0  0  0  0
  -10.2017    2.1329   -3.1797 N   0  0  0  0  0  0  0  0  0  0  0  0
  -10.6409   -0.1979   -7.6024 C   0  0  0  0  0  0  0  0  0  0  0  0
  -10.0941    1.0465   -7.8947 C   0  0  0  0  0  0  0  0  0  0  0  0
  -10.9374   -0.5401   -6.2797 C   0  0  0  0  0  0  0  0  0  0  0  0
  -10.1459    1.5949   -5.5356 C   0  0  0  0  0  0  0  0  0  0  0  0
  -10.6984    0.3409   -5.2276 C   0  0  0  0  0  0  0  0  0  0  0  0
   -9.8450    1.9464   -6.8631 C   0  0  0  0  0  0  0  0  0  0  0  0
   -9.9216    2.4477   -4.4585 C   0  0  0  0  0  0  0  0  0  0  0  0
  -10.7256    0.9088   -3.0065 C   0  0  0  0  0  0  0  0  0  0  0  0
  -10.3177    3.6964   -9.2883 O   0  0  0  0  0  0  0  0  0  0  0  0
   -9.7922    1.4043   -9.2105 N   0  0  0  0  0  0  0  0  0  0  0  0
   -9.9163    2.6637   -9.8115 C   0  0  0  0  0  0  0  0  0  0  0  0
   -9.4404    0.6420   -9.7863 H   0  0  0  0  0  0  0  0  0  0  0  0
   -9.4883    2.6348  -11.2420 C   0  0  0  0  0  0  0  0  0  0  0  0
  -10.2831    2.0993  -12.1794 C   0  0  0  0  0  0  0  0  0  0  0  0
   -9.9187    2.0463  -13.6331 C   0  0  0  0  0  0  0  0  0  0  0  0
  -10.6023    0.9537  -14.3175 N   0  0  0  0  0  0  0  0  0  0  0  0
   -9.8702    0.5637  -15.5231 C   0  0  0  0  0  0  0  0  0  0  0  0
  -10.7589   -0.1949  -13.4238 C   0  0  0  0  0  0  0  0  0  0  0  0
   -9.3667    3.7306   -4.6912 N   0  0  0  0  0  0  0  0  0  0  0  0
   -8.4116    3.6893   -5.0363 H   0  0  0  0  0  0  0  0  0  0  0  0
  -11.9146    8.0537   -5.7206 Cl  0  0  0  0  0  0  0  0  0  0  0  0
  -10.8641    8.7998   -3.0506 F   0  0  0  0  0  0  0  0  0  0  0  0
   -9.7487    5.0171   -4.2789 C   0  0  0  0  0  0  0  0  0  0  0  0
  -10.5482    5.8064   -5.1059 C   0  0  0  0  0  0  0  0  0  0  0  0
   -9.3285    5.5061   -3.0421 C   0  0  0  0  0  0  0  0  0  0  0  0
  -10.9277    7.0844   -4.6959 C   0  0  0  0  0  0  0  0  0  0  0  0
   -9.7078    6.7844   -2.6322 C   0  0  0  0  0  0  0  0  0  0  0  0
  -10.5074    7.5735   -3.4590 C   0  0  0  0  0  0  0  0  0  0  0  0
  -10.8970   -1.1009   -8.5912 O   0  0  0  0  0  0  0  0  0  0  0  0
  -10.2133   -4.0562   -8.6501 O   0  0  0  0  0  0  0  0  0  0  0  0
  -11.6779   -2.2383   -8.2411 C   0  0  0  0  0  0  0  0  0  0  0  0
  -12.1360   -2.9540   -9.4882 C   0  0  0  0  0  0  0  0  0  0  0  0
  -10.7815   -3.2702   -7.5883 C   0  0  0  0  0  0  0  0  0  0  0  0
  -10.9033   -3.7492   -9.8691 C   0  0  0  0  0  0  0  0  0  0  0  0
 23 28  1  0
 24 30  1  0
 32 35  1  0
 32 36  1  0
 31 33  1  0
 31  3  1  0
 11 13  2  0
 12  4  1  0
 12 13  1  0
 12 14  1  0
  1  7  2  0
  1 10  1  0
 21  9  1  0
 21 25  1  0
 21 22  1  0
  2  9  1  0
  2 10  2  0
 18 17  1  0
 18 19  1  0
 18 20  1  0
 33 34  1  0
 33 35  1  0
 34 36  1  0
  3  4  1  0
  3  5  2  0
  4  8  2  0
  5  7  1  0
  6  7  1  0
  6  8  1  0
  6  9  2  0
 13 15  1  0
 25 26  2  0
 25 27  1  0
 15 16  2  0
 17 16  1  0
 26 28  1  0
 27 29  2  0
 28 30  2  0
 29 30  1  0
M  END
> <PUBCHEM_COMPOUND_CID>
10184653

> <PUBCHEM_CONFORMER_RMSD>
1

> <PUBCHEM_CONFORMER_DIVERSEORDER>
1
55
19
37
62
57
35
28
53
34
56
41
17
51
59
61
43
13
31
50
33
32
60
25
54
27
8
16
20
12
38
65
9
48
40
7
21
44
18
47
10
29
58
4
45
6
15
11
22
63
30
39
52
23
36
26
46
49
64
14
24
42
3
5
2

> <PUBCHEM_MMFF94_PARTIAL_CHARGES>
42
1 -0.18
10 -0.81
11 0.28
13 0.28
14 0.28
15 0.08
16 0.12
17 -0.15
19 0.31
2 -0.19
20 -0.15
21 0.41
22 0.62
23 0.47
24 0.1
25 -0.14
26 0.41
27 -0.29
28 -0.15
29 -0.15
3 -0.56
30 0.18
31 -0.15
32 0.27
33 0.27
34 0.19
4 -0.36
42 0.15
43 0.15
44 0.37
45 0.4
46 0.15
47 0.15
5 -0.57
50 0.15
51 0.15
52 0.15
53 0.15
6 -0.55
7 -0.62
8 -0.6
9 -0.62

> <PUBCHEM_EFFECTIVE_ROTOR_COUNT>
10

> <PUBCHEM_PHARMACOPHORE_FEATURES>
12
1 10 cation
1 3 acceptor
1 4 acceptor
1 5 acceptor
1 6 donor
1 8 donor
3 7 9 23 cation
3 8 9 21 cation
5 3 11 12 13 14 rings
6 15 16 17 18 19 20 rings
6 24 28 29 30 31 34 rings
6 7 9 18 19 21 23 rings

> <PUBCHEM_HEAVY_ATOM_COUNT>
34

> <PUBCHEM_ATOM_DEF_STEREO_COUNT>
1

> <PUBCHEM_ATOM_UDEF_STEREO_COUNT>
0

> <PUBCHEM_BOND_DEF_STEREO_COUNT>
1

> <PUBCHEM_BOND_UDEF_STEREO_COUNT>
0

> <PUBCHEM_ISOTOPIC_ATOM_COUNT>
0

> <PUBCHEM_COMPONENT_COUNT>
1

> <PUBCHEM_CACTVS_TAUTO_COUNT>
6

> <PUBCHEM_CONFORMER_ID>
009B67CD00000001

> <PUBCHEM_MMFF94_ENERGY>
118.3863

> <PUBCHEM_FEATURE_SELFOVERLAP>
61.069

> <PUBCHEM_SHAPE_FINGERPRINT>
10050765 1 18409731725397260590
102385 1 18338237050937012855
10581848 127 18267048157042201945
10675989 125 17765712421274760985
10816530 23 18120663422938000737
10939801 23 17974850889678323372
12107183 9 18190160323388426594
12741549 16 17460587263948438879
12788726 201 18115875276836333234
12925494 130 18339077065050983644
13140716 1 17687186800226601262
13383665 225 18190204393246121460
13540713 4 18271814480219722286
14028597 1 17603577578055265275
14068700 686 18341337759526122742
14190465 44 18336823074577052925
14294032 229 18338254728900680980
14394314 77 17618513515589478757
14395042 24 18187930642324558101
14790565 3 18049448033442953445
15400415 2 17976265634705014989
15439362 3 18123748656634030244
19309040 13 18059285444874715076
19427546 62 18049165458685693621
20238998 120 18194403527617411343
23845131 108 18193558857484026109
24771293 8 18127703836151030955
27425 322 17908984301971085317
469060 322 18266194995910524210
550186 72 18265899249300781597
57527585 21 18269534161279665167
6004065 56 17976261562775526063
653340 110 18410019840245178567
9555976 147 18191279677237576986
9777508 108 18337114441401685095
9849439 229 18338796689486291428
9896288 288 18408602587053135962
9961470 85 18268707200098131368

> <PUBCHEM_SHAPE_MULTIPOLES>
651.79
16.98
9.14
1.35
16.63
7.82
0.79
16.53
7.63
-22.03
1.12
1.11
0.38
1.78

> <PUBCHEM_SHAPE_SELFOVERLAP>
1393.544

> <PUBCHEM_SHAPE_VOLUME>
363.9

> <PUBCHEM_COORDINATE_TYPE>
2
5
10

> <minimizedAffinity>
-8.50684

> <CNNscore>
0.3640970886

> <CNNaffinity>
7.6935534477

> <CNN_VS>
2.8012003899

> <CNNaffinity_variance>
0.0143524781

$$$$
10184653


 36 39  0  0  0  0  0  0  0  0999 V2000
  -13.9457   16.9075    9.0107 N   0  0  0  0  0  0  0  0  0  0  0  0
  -13.1357   16.9179    6.7413 N   0  0  0  0  0  0  0  0  0  0  0  0
  -11.6429   15.0142   11.1383 C   0  0  0  0  0  0  0  0  0  0  0  0
  -10.6743   14.6241   10.2203 C   0  0  0  0  0  0  0  0  0  0  0  0
  -12.7358   15.7799   10.7215 C   0  0  0  0  0  0  0  0  0  0  0  0
  -11.9028   15.7709    8.4754 C   0  0  0  0  0  0  0  0  0  0  0  0
  -12.8877   16.1711    9.3933 C   0  0  0  0  0  0  0  0  0  0  0  0
  -10.8009   15.0009    8.8869 C   0  0  0  0  0  0  0  0  0  0  0  0
  -12.0890   16.1806    7.1582 C   0  0  0  0  0  0  0  0  0  0  0  0
  -14.0120   17.2413    7.7058 C   0  0  0  0  0  0  0  0  0  0  0  0
   -7.9769   15.4737   11.2283 O   0  0  0  0  0  0  0  0  0  0  0  0
   -9.5764   13.8590   10.6200 N   0  0  0  0  0  0  0  0  0  0  0  0
   -8.3344   14.3105   11.0849 C   0  0  0  0  0  0  0  0  0  0  0  0
   -9.7170   12.8526   10.5582 H   0  0  0  0  0  0  0  0  0  0  0  0
   -7.4232   13.1733   11.4117 C   0  0  0  0  0  0  0  0  0  0  0  0
   -7.6166   11.9664   10.8611 C   0  0  0  0  0  0  0  0  0  0  0  0
   -6.7347   10.7858   11.1388 C   0  0  0  0  0  0  0  0  0  0  0  0
   -6.1492   10.2541    9.9124 N   0  0  0  0  0  0  0  0  0  0  0  0
   -4.6878   10.2774    9.9879 C   0  0  0  0  0  0  0  0  0  0  0  0
   -6.6238    8.8920    9.6644 C   0  0  0  0  0  0  0  0  0  0  0  0
  -11.1367   15.8144    6.1750 N   0  0  0  0  0  0  0  0  0  0  0  0
  -10.6418   14.9574    6.4066 H   0  0  0  0  0  0  0  0  0  0  0  0
   -7.1548   18.5413    4.4574 Cl  0  0  0  0  0  0  0  0  0  0  0  0
   -8.8143   18.6109    2.0017 F   0  0  0  0  0  0  0  0  0  0  0  0
  -10.5440   16.5248    5.1189 C   0  0  0  0  0  0  0  0  0  0  0  0
   -9.2906   17.1127    5.2900 C   0  0  0  0  0  0  0  0  0  0  0  0
  -11.2090   16.6428    3.8986 C   0  0  0  0  0  0  0  0  0  0  0  0
   -8.7020   17.8183    4.2405 C   0  0  0  0  0  0  0  0  0  0  0  0
  -10.6204   17.3486    2.8491 C   0  0  0  0  0  0  0  0  0  0  0  0
   -9.3670   17.9363    3.0200 C   0  0  0  0  0  0  0  0  0  0  0  0
  -11.5472   14.6603   12.4514 O   0  0  0  0  0  0  0  0  0  0  0  0
  -11.8584   14.4086   15.4589 O   0  0  0  0  0  0  0  0  0  0  0  0
  -12.6086   15.0658   13.3088 C   0  0  0  0  0  0  0  0  0  0  0  0
  -13.4052   13.8621   13.7492 C   0  0  0  0  0  0  0  0  0  0  0  0
  -12.0251   15.5617   14.6157 C   0  0  0  0  0  0  0  0  0  0  0  0
  -12.5420   13.2991   14.8606 C   0  0  0  0  0  0  0  0  0  0  0  0
 23 28  1  0
 24 30  1  0
 32 35  1  0
 32 36  1  0
 31 33  1  0
 31  3  1  0
 11 13  2  0
 12  4  1  0
 12 13  1  0
 12 14  1  0
  1  7  2  0
  1 10  1  0
 21  9  1  0
 21 25  1  0
 21 22  1  0
  2  9  1  0
  2 10  2  0
 18 17  1  0
 18 19  1  0
 18 20  1  0
 33 34  1  0
 33 35  1  0
 34 36  1  0
  3  4  1  0
  3  5  2  0
  4  8  2  0
  5  7  1  0
  6  7  1  0
  6  8  1  0
  6  9  2  0
 13 15  1  0
 25 26  2  0
 25 27  1  0
 15 16  2  0
 17 16  1  0
 26 28  1  0
 27 29  2  0
 28 30  2  0
 29 30  1  0
M  END
> <PUBCHEM_COMPOUND_CID>
10184653

> <PUBCHEM_CONFORMER_RMSD>
1

> <PUBCHEM_CONFORMER_DIVERSEORDER>
1
55
19
37
62
57
35
28
53
34
56
41
17
51
59
61
43
13
31
50
33
32
60
25
54
27
8
16
20
12
38
65
9
48
40
7
21
44
18
47
10
29
58
4
45
6
15
11
22
63
30
39
52
23
36
26
46
49
64
14
24
42
3
5
2

> <PUBCHEM_MMFF94_PARTIAL_CHARGES>
42
1 -0.18
10 -0.81
11 0.28
13 0.28
14 0.28
15 0.08
16 0.12
17 -0.15
19 0.31
2 -0.19
20 -0.15
21 0.41
22 0.62
23 0.47
24 0.1
25 -0.14
26 0.41
27 -0.29
28 -0.15
29 -0.15
3 -0.56
30 0.18
31 -0.15
32 0.27
33 0.27
34 0.19
4 -0.36
42 0.15
43 0.15
44 0.37
45 0.4
46 0.15
47 0.15
5 -0.57
50 0.15
51 0.15
52 0.15
53 0.15
6 -0.55
7 -0.62
8 -0.6
9 -0.62

> <PUBCHEM_EFFECTIVE_ROTOR_COUNT>
10

> <PUBCHEM_PHARMACOPHORE_FEATURES>
12
1 10 cation
1 3 acceptor
1 4 acceptor
1 5 acceptor
1 6 donor
1 8 donor
3 7 9 23 cation
3 8 9 21 cation
5 3 11 12 13 14 rings
6 15 16 17 18 19 20 rings
6 24 28 29 30 31 34 rings
6 7 9 18 19 21 23 rings

> <PUBCHEM_HEAVY_ATOM_COUNT>
34

> <PUBCHEM_ATOM_DEF_STEREO_COUNT>
1

> <PUBCHEM_ATOM_UDEF_STEREO_COUNT>
0

> <PUBCHEM_BOND_DEF_STEREO_COUNT>
1

> <PUBCHEM_BOND_UDEF_STEREO_COUNT>
0

> <PUBCHEM_ISOTOPIC_ATOM_COUNT>
0

> <PUBCHEM_COMPONENT_COUNT>
1

> <PUBCHEM_CACTVS_TAUTO_COUNT>
6

> <PUBCHEM_CONFORMER_ID>
009B67CD00000001

> <PUBCHEM_MMFF94_ENERGY>
118.3863

> <PUBCHEM_FEATURE_SELFOVERLAP>
61.069

> <PUBCHEM_SHAPE_FINGERPRINT>
10050765 1 18409731725397260590
102385 1 18338237050937012855
10581848 127 18267048157042201945
10675989 125 17765712421274760985
10816530 23 18120663422938000737
10939801 23 17974850889678323372
12107183 9 18190160323388426594
12741549 16 17460587263948438879
12788726 201 18115875276836333234
12925494 130 18339077065050983644
13140716 1 17687186800226601262
13383665 225 18190204393246121460
13540713 4 18271814480219722286
14028597 1 17603577578055265275
14068700 686 18341337759526122742
14190465 44 18336823074577052925
14294032 229 18338254728900680980
14394314 77 17618513515589478757
14395042 24 18187930642324558101
14790565 3 18049448033442953445
15400415 2 17976265634705014989
15439362 3 18123748656634030244
19309040 13 18059285444874715076
19427546 62 18049165458685693621
20238998 120 18194403527617411343
23845131 108 18193558857484026109
24771293 8 18127703836151030955
27425 322 17908984301971085317
469060 322 18266194995910524210
550186 72 18265899249300781597
57527585 21 18269534161279665167
6004065 56 17976261562775526063
653340 110 18410019840245178567
9555976 147 18191279677237576986
9777508 108 18337114441401685095
9849439 229 18338796689486291428
9896288 288 18408602587053135962
9961470 85 18268707200098131368

> <PUBCHEM_SHAPE_MULTIPOLES>
651.79
16.98
9.14
1.35
16.63
7.82
0.79
16.53
7.63
-22.03
1.12
1.11
0.38
1.78

> <PUBCHEM_SHAPE_SELFOVERLAP>
1393.544

> <PUBCHEM_SHAPE_VOLUME>
363.9

> <PUBCHEM_COORDINATE_TYPE>
2
5
10

> <minimizedAffinity>
-6.64416

> <CNNscore>
0.3502750695

> <CNNaffinity>
6.5611624718

> <CNN_VS>
2.2982115746

> <CNNaffinity_variance>
0.1077189744

$$$$
10184653


 36 39  0  0  0  0  0  0  0  0999 V2000
  -10.9319   -5.2218   -3.9057 N   0  0  0  0  0  0  0  0  0  0  0  0
   -9.9397   -3.4986   -5.2667 N   0  0  0  0  0  0  0  0  0  0  0  0
  -10.8943   -4.1972   -0.3896 C   0  0  0  0  0  0  0  0  0  0  0  0
  -10.2903   -2.9475   -0.4712 C   0  0  0  0  0  0  0  0  0  0  0  0
  -11.1045   -4.9512   -1.5479 C   0  0  0  0  0  0  0  0  0  0  0  0
  -10.1126   -3.2187   -2.8720 C   0  0  0  0  0  0  0  0  0  0  0  0
  -10.7217   -4.4824   -2.8025 C   0  0  0  0  0  0  0  0  0  0  0  0
   -9.8978   -2.4546   -1.7117 C   0  0  0  0  0  0  0  0  0  0  0  0
   -9.7440   -2.7844   -4.1422 C   0  0  0  0  0  0  0  0  0  0  0  0
  -10.5300   -4.6897   -5.0778 C   0  0  0  0  0  0  0  0  0  0  0  0
  -12.2174   -1.9986    1.6263 O   0  0  0  0  0  0  0  0  0  0  0  0
  -10.0728   -2.1815    0.6761 N   0  0  0  0  0  0  0  0  0  0  0  0
  -11.0145   -1.7654    1.6261 C   0  0  0  0  0  0  0  0  0  0  0  0
   -9.1046   -1.9019    0.8210 H   0  0  0  0  0  0  0  0  0  0  0  0
  -10.3811   -0.9578    2.7110 C   0  0  0  0  0  0  0  0  0  0  0  0
  -11.1376   -0.2594    3.5695 C   0  0  0  0  0  0  0  0  0  0  0  0
  -10.5670    0.5637    4.6856 C   0  0  0  0  0  0  0  0  0  0  0  0
  -11.6183    1.1704    5.4957 N   0  0  0  0  0  0  0  0  0  0  0  0
  -12.3668    2.1551    4.7136 C   0  0  0  0  0  0  0  0  0  0  0  0
  -12.5211    0.1440    6.0190 C   0  0  0  0  0  0  0  0  0  0  0  0
   -9.1234   -1.5195   -4.2915 N   0  0  0  0  0  0  0  0  0  0  0  0
   -8.3773   -1.3655   -3.6187 H   0  0  0  0  0  0  0  0  0  0  0  0
  -12.4246    0.8013   -7.4470 Cl  0  0  0  0  0  0  0  0  0  0  0  0
  -10.6218    3.1007   -6.9447 F   0  0  0  0  0  0  0  0  0  0  0  0
   -9.5070   -0.3496   -4.9664 C   0  0  0  0  0  0  0  0  0  0  0  0
  -10.6419   -0.3521   -5.7775 C   0  0  0  0  0  0  0  0  0  0  0  0
   -8.7527    0.8152   -4.8259 C   0  0  0  0  0  0  0  0  0  0  0  0
  -11.0228    0.8103   -6.4478 C   0  0  0  0  0  0  0  0  0  0  0  0
   -9.1335    1.9776   -5.4965 C   0  0  0  0  0  0  0  0  0  0  0  0
  -10.2685    1.9753   -6.3073 C   0  0  0  0  0  0  0  0  0  0  0  0
  -11.2894   -4.7077    0.8112 O   0  0  0  0  0  0  0  0  0  0  0  0
  -11.5166   -6.1670    3.4614 O   0  0  0  0  0  0  0  0  0  0  0  0
  -10.4818   -5.7363    1.3731 C   0  0  0  0  0  0  0  0  0  0  0  0
   -9.6110   -5.1695    2.4676 C   0  0  0  0  0  0  0  0  0  0  0  0
  -11.3690   -6.7000    2.1339 C   0  0  0  0  0  0  0  0  0  0  0  0
  -10.5738   -5.1008    3.6361 C   0  0  0  0  0  0  0  0  0  0  0  0
 23 28  1  0
 24 30  1  0
 32 35  1  0
 32 36  1  0
 31 33  1  0
 31  3  1  0
 11 13  2  0
 12  4  1  0
 12 13  1  0
 12 14  1  0
  1  7  2  0
  1 10  1  0
 21  9  1  0
 21 25  1  0
 21 22  1  0
  2  9  1  0
  2 10  2  0
 18 17  1  0
 18 19  1  0
 18 20  1  0
 33 34  1  0
 33 35  1  0
 34 36  1  0
  3  4  1  0
  3  5  2  0
  4  8  2  0
  5  7  1  0
  6  7  1  0
  6  8  1  0
  6  9  2  0
 13 15  1  0
 25 26  2  0
 25 27  1  0
 15 16  2  0
 17 16  1  0
 26 28  1  0
 27 29  2  0
 28 30  2  0
 29 30  1  0
M  END
> <PUBCHEM_COMPOUND_CID>
10184653

> <PUBCHEM_CONFORMER_RMSD>
1

> <PUBCHEM_CONFORMER_DIVERSEORDER>
1
55
19
37
62
57
35
28
53
34
56
41
17
51
59
61
43
13
31
50
33
32
60
25
54
27
8
16
20
12
38
65
9
48
40
7
21
44
18
47
10
29
58
4
45
6
15
11
22
63
30
39
52
23
36
26
46
49
64
14
24
42
3
5
2

> <PUBCHEM_MMFF94_PARTIAL_CHARGES>
42
1 -0.18
10 -0.81
11 0.28
13 0.28
14 0.28
15 0.08
16 0.12
17 -0.15
19 0.31
2 -0.19
20 -0.15
21 0.41
22 0.62
23 0.47
24 0.1
25 -0.14
26 0.41
27 -0.29
28 -0.15
29 -0.15
3 -0.56
30 0.18
31 -0.15
32 0.27
33 0.27
34 0.19
4 -0.36
42 0.15
43 0.15
44 0.37
45 0.4
46 0.15
47 0.15
5 -0.57
50 0.15
51 0.15
52 0.15
53 0.15
6 -0.55
7 -0.62
8 -0.6
9 -0.62

> <PUBCHEM_EFFECTIVE_ROTOR_COUNT>
10

> <PUBCHEM_PHARMACOPHORE_FEATURES>
12
1 10 cation
1 3 acceptor
1 4 acceptor
1 5 acceptor
1 6 donor
1 8 donor
3 7 9 23 cation
3 8 9 21 cation
5 3 11 12 13 14 rings
6 15 16 17 18 19 20 rings
6 24 28 29 30 31 34 rings
6 7 9 18 19 21 23 rings

> <PUBCHEM_HEAVY_ATOM_COUNT>
34

> <PUBCHEM_ATOM_DEF_STEREO_COUNT>
1

> <PUBCHEM_ATOM_UDEF_STEREO_COUNT>
0

> <PUBCHEM_BOND_DEF_STEREO_COUNT>
1

> <PUBCHEM_BOND_UDEF_STEREO_COUNT>
0

> <PUBCHEM_ISOTOPIC_ATOM_COUNT>
0

> <PUBCHEM_COMPONENT_COUNT>
1

> <PUBCHEM_CACTVS_TAUTO_COUNT>
6

> <PUBCHEM_CONFORMER_ID>
009B67CD00000001

> <PUBCHEM_MMFF94_ENERGY>
118.3863

> <PUBCHEM_FEATURE_SELFOVERLAP>
61.069

> <PUBCHEM_SHAPE_FINGERPRINT>
10050765 1 18409731725397260590
102385 1 18338237050937012855
10581848 127 18267048157042201945
10675989 125 17765712421274760985
10816530 23 18120663422938000737
10939801 23 17974850889678323372
12107183 9 18190160323388426594
12741549 16 17460587263948438879
12788726 201 18115875276836333234
12925494 130 18339077065050983644
13140716 1 17687186800226601262
13383665 225 18190204393246121460
13540713 4 18271814480219722286
14028597 1 17603577578055265275
14068700 686 18341337759526122742
14190465 44 18336823074577052925
14294032 229 18338254728900680980
14394314 77 17618513515589478757
14395042 24 18187930642324558101
14790565 3 18049448033442953445
15400415 2 17976265634705014989
15439362 3 18123748656634030244
19309040 13 18059285444874715076
19427546 62 18049165458685693621
20238998 120 18194403527617411343
23845131 108 18193558857484026109
24771293 8 18127703836151030955
27425 322 17908984301971085317
469060 322 18266194995910524210
550186 72 18265899249300781597
57527585 21 18269534161279665167
6004065 56 17976261562775526063
653340 110 18410019840245178567
9555976 147 18191279677237576986
9777508 108 18337114441401685095
9849439 229 18338796689486291428
9896288 288 18408602587053135962
9961470 85 18268707200098131368

> <PUBCHEM_SHAPE_MULTIPOLES>
651.79
16.98
9.14
1.35
16.63
7.82
0.79
16.53
7.63
-22.03
1.12
1.11
0.38
1.78

> <PUBCHEM_SHAPE_SELFOVERLAP>
1393.544

> <PUBCHEM_SHAPE_VOLUME>
363.9

> <PUBCHEM_COORDINATE_TYPE>
2
5
10

> <minimizedAffinity>
-8.16093

> <CNNscore>
0.3499740958

> <CNNaffinity>
6.6361351013

> <CNN_VS>
2.3224754333

> <CNNaffinity_variance>
0.1600608826

$$$$
10184653


 36 39  0  0  0  0  0  0  0  0999 V2000
  -11.1210   -0.1162   -4.6955 N   0  0  0  0  0  0  0  0  0  0  0  0
  -10.1162    1.8493   -3.7293 N   0  0  0  0  0  0  0  0  0  0  0  0
  -11.3517    0.2709   -8.3302 C   0  0  0  0  0  0  0  0  0  0  0  0
  -10.7963    1.5327   -8.5106 C   0  0  0  0  0  0  0  0  0  0  0  0
  -11.4555   -0.2722   -7.0462 C   0  0  0  0  0  0  0  0  0  0  0  0
  -10.4538    1.6959   -6.1179 C   0  0  0  0  0  0  0  0  0  0  0  0
  -11.0128    0.4222   -5.9228 C   0  0  0  0  0  0  0  0  0  0  0  0
  -10.3459    2.2488   -7.4059 C   0  0  0  0  0  0  0  0  0  0  0  0
  -10.0231    2.3588   -4.9721 C   0  0  0  0  0  0  0  0  0  0  0  0
  -10.6665    0.6262   -3.6655 C   0  0  0  0  0  0  0  0  0  0  0  0
   -8.4061    1.8204  -10.3044 O   0  0  0  0  0  0  0  0  0  0  0  0
  -10.6853    2.0900   -9.7863 N   0  0  0  0  0  0  0  0  0  0  0  0
   -9.5378    2.1984  -10.5828 C   0  0  0  0  0  0  0  0  0  0  0  0
  -11.5562    2.4564  -10.1653 H   0  0  0  0  0  0  0  0  0  0  0  0
   -9.8352    2.8601  -11.8882 C   0  0  0  0  0  0  0  0  0  0  0  0
  -10.0841    2.1261  -12.9820 C   0  0  0  0  0  0  0  0  0  0  0  0
  -10.3983    2.7260  -14.3200 C   0  0  0  0  0  0  0  0  0  0  0  0
  -10.8931    1.7208  -15.2551 N   0  0  0  0  0  0  0  0  0  0  0  0
  -11.2229    2.3338  -16.5424 C   0  0  0  0  0  0  0  0  0  0  0  0
   -9.9045    0.6569  -15.4369 C   0  0  0  0  0  0  0  0  0  0  0  0
   -9.4486    3.6487   -5.0898 N   0  0  0  0  0  0  0  0  0  0  0  0
   -8.5086    3.6270   -5.4757 H   0  0  0  0  0  0  0  0  0  0  0  0
  -11.8140    8.1627   -5.6092 Cl  0  0  0  0  0  0  0  0  0  0  0  0
  -10.7676    8.5399   -2.8611 F   0  0  0  0  0  0  0  0  0  0  0  0
   -9.7853    4.8907   -4.5282 C   0  0  0  0  0  0  0  0  0  0  0  0
  -10.5434    5.8049   -5.2599 C   0  0  0  0  0  0  0  0  0  0  0  0
   -9.3614    5.2103   -3.2384 C   0  0  0  0  0  0  0  0  0  0  0  0
  -10.8779    7.0387   -4.7016 C   0  0  0  0  0  0  0  0  0  0  0  0
   -9.6957    6.4442   -2.6802 C   0  0  0  0  0  0  0  0  0  0  0  0
  -10.4539    7.3584   -3.4117 C   0  0  0  0  0  0  0  0  0  0  0  0
  -11.8024   -0.4549   -9.3925 O   0  0  0  0  0  0  0  0  0  0  0  0
   -9.1932   -1.2918  -10.6950 O   0  0  0  0  0  0  0  0  0  0  0  0
  -11.2345   -1.7466   -9.5800 C   0  0  0  0  0  0  0  0  0  0  0  0
  -11.3708   -2.1662  -11.0231 C   0  0  0  0  0  0  0  0  0  0  0  0
   -9.7320   -1.6542   -9.4118 C   0  0  0  0  0  0  0  0  0  0  0  0
  -10.2271   -1.4197  -11.6804 C   0  0  0  0  0  0  0  0  0  0  0  0
 23 28  1  0
 24 30  1  0
 32 35  1  0
 32 36  1  0
 31 33  1  0
 31  3  1  0
 11 13  2  0
 12  4  1  0
 12 13  1  0
 12 14  1  0
  1  7  2  0
  1 10  1  0
 21  9  1  0
 21 25  1  0
 21 22  1  0
  2  9  1  0
  2 10  2  0
 18 17  1  0
 18 19  1  0
 18 20  1  0
 33 34  1  0
 33 35  1  0
 34 36  1  0
  3  4  1  0
  3  5  2  0
  4  8  2  0
  5  7  1  0
  6  7  1  0
  6  8  1  0
  6  9  2  0
 13 15  1  0
 25 26  2  0
 25 27  1  0
 15 16  2  0
 17 16  1  0
 26 28  1  0
 27 29  2  0
 28 30  2  0
 29 30  1  0
M  END
> <PUBCHEM_COMPOUND_CID>
10184653

> <PUBCHEM_CONFORMER_RMSD>
1

> <PUBCHEM_CONFORMER_DIVERSEORDER>
1
55
19
37
62
57
35
28
53
34
56
41
17
51
59
61
43
13
31
50
33
32
60
25
54
27
8
16
20
12
38
65
9
48
40
7
21
44
18
47
10
29
58
4
45
6
15
11
22
63
30
39
52
23
36
26
46
49
64
14
24
42
3
5
2

> <PUBCHEM_MMFF94_PARTIAL_CHARGES>
42
1 -0.18
10 -0.81
11 0.28
13 0.28
14 0.28
15 0.08
16 0.12
17 -0.15
19 0.31
2 -0.19
20 -0.15
21 0.41
22 0.62
23 0.47
24 0.1
25 -0.14
26 0.41
27 -0.29
28 -0.15
29 -0.15
3 -0.56
30 0.18
31 -0.15
32 0.27
33 0.27
34 0.19
4 -0.36
42 0.15
43 0.15
44 0.37
45 0.4
46 0.15
47 0.15
5 -0.57
50 0.15
51 0.15
52 0.15
53 0.15
6 -0.55
7 -0.62
8 -0.6
9 -0.62

> <PUBCHEM_EFFECTIVE_ROTOR_COUNT>
10

> <PUBCHEM_PHARMACOPHORE_FEATURES>
12
1 10 cation
1 3 acceptor
1 4 acceptor
1 5 acceptor
1 6 donor
1 8 donor
3 7 9 23 cation
3 8 9 21 cation
5 3 11 12 13 14 rings
6 15 16 17 18 19 20 rings
6 24 28 29 30 31 34 rings
6 7 9 18 19 21 23 rings

> <PUBCHEM_HEAVY_ATOM_COUNT>
34

> <PUBCHEM_ATOM_DEF_STEREO_COUNT>
1

> <PUBCHEM_ATOM_UDEF_STEREO_COUNT>
0

> <PUBCHEM_BOND_DEF_STEREO_COUNT>
1

> <PUBCHEM_BOND_UDEF_STEREO_COUNT>
0

> <PUBCHEM_ISOTOPIC_ATOM_COUNT>
0

> <PUBCHEM_COMPONENT_COUNT>
1

> <PUBCHEM_CACTVS_TAUTO_COUNT>
6

> <PUBCHEM_CONFORMER_ID>
009B67CD00000001

> <PUBCHEM_MMFF94_ENERGY>
118.3863

> <PUBCHEM_FEATURE_SELFOVERLAP>
61.069

> <PUBCHEM_SHAPE_FINGERPRINT>
10050765 1 18409731725397260590
102385 1 18338237050937012855
10581848 127 18267048157042201945
10675989 125 17765712421274760985
10816530 23 18120663422938000737
10939801 23 17974850889678323372
12107183 9 18190160323388426594
12741549 16 17460587263948438879
12788726 201 18115875276836333234
12925494 130 18339077065050983644
13140716 1 17687186800226601262
13383665 225 18190204393246121460
13540713 4 18271814480219722286
14028597 1 17603577578055265275
14068700 686 18341337759526122742
14190465 44 18336823074577052925
14294032 229 18338254728900680980
14394314 77 17618513515589478757
14395042 24 18187930642324558101
14790565 3 18049448033442953445
15400415 2 17976265634705014989
15439362 3 18123748656634030244
19309040 13 18059285444874715076
19427546 62 18049165458685693621
20238998 120 18194403527617411343
23845131 108 18193558857484026109
24771293 8 18127703836151030955
27425 322 17908984301971085317
469060 322 18266194995910524210
550186 72 18265899249300781597
57527585 21 18269534161279665167
6004065 56 17976261562775526063
653340 110 18410019840245178567
9555976 147 18191279677237576986
9777508 108 18337114441401685095
9849439 229 18338796689486291428
9896288 288 18408602587053135962
9961470 85 18268707200098131368

> <PUBCHEM_SHAPE_MULTIPOLES>
651.79
16.98
9.14
1.35
16.63
7.82
0.79
16.53
7.63
-22.03
1.12
1.11
0.38
1.78

> <PUBCHEM_SHAPE_SELFOVERLAP>
1393.544

> <PUBCHEM_SHAPE_VOLUME>
363.9

> <PUBCHEM_COORDINATE_TYPE>
2
5
10

> <minimizedAffinity>
-9.23054

> <CNNscore>
0.3435034752

> <CNNaffinity>
7.4392695427

> <CNN_VS>
2.5554149151

> <CNNaffinity_variance>
0.1993026286

$$$$
10184653


 36 39  0  0  0  0  0  0  0  0999 V2000
  -26.1725   10.1324   -9.5731 N   0  0  0  0  0  0  0  0  0  0  0  0
  -26.2064    8.3286  -11.1705 N   0  0  0  0  0  0  0  0  0  0  0  0
  -25.3518    8.8281   -6.2505 C   0  0  0  0  0  0  0  0  0  0  0  0
  -25.2004    7.4714   -6.5147 C   0  0  0  0  0  0  0  0  0  0  0  0
  -25.6779    9.7113   -7.2840 C   0  0  0  0  0  0  0  0  0  0  0  0
  -25.7034    7.8955   -8.8462 C   0  0  0  0  0  0  0  0  0  0  0  0
  -25.8590    9.2680   -8.5920 C   0  0  0  0  0  0  0  0  0  0  0  0
  -25.3755    7.0010   -7.8124 C   0  0  0  0  0  0  0  0  0  0  0  0
  -25.8922    7.4905  -10.1646 C   0  0  0  0  0  0  0  0  0  0  0  0
  -26.3287    9.6159  -10.8090 C   0  0  0  0  0  0  0  0  0  0  0  0
  -26.9399    5.5829   -4.9586 O   0  0  0  0  0  0  0  0  0  0  0  0
  -24.8750    6.5756   -5.4939 N   0  0  0  0  0  0  0  0  0  0  0  0
  -25.7321    5.7127   -4.7985 C   0  0  0  0  0  0  0  0  0  0  0  0
  -23.8893    6.5639   -5.2394 H   0  0  0  0  0  0  0  0  0  0  0  0
  -24.9949    4.9118   -3.7761 C   0  0  0  0  0  0  0  0  0  0  0  0
  -25.1769    3.5865   -3.6891 C   0  0  0  0  0  0  0  0  0  0  0  0
  -24.4626    2.7227   -2.6929 C   0  0  0  0  0  0  0  0  0  0  0  0
  -24.9665    1.3533   -2.7123 N   0  0  0  0  0  0  0  0  0  0  0  0
  -26.2464    1.2860   -3.4188 C   0  0  0  0  0  0  0  0  0  0  0  0
  -23.9932    0.4560   -3.3367 C   0  0  0  0  0  0  0  0  0  0  0  0
  -25.7525    6.1204  -10.4978 N   0  0  0  0  0  0  0  0  0  0  0  0
  -25.8841    5.5059   -9.6990 H   0  0  0  0  0  0  0  0  0  0  0  0
  -26.5103    3.4855  -14.8249 Cl  0  0  0  0  0  0  0  0  0  0  0  0
  -23.5468    3.5516  -14.8758 F   0  0  0  0  0  0  0  0  0  0  0  0
  -25.1971    5.4676  -11.6098 C   0  0  0  0  0  0  0  0  0  0  0  0
  -26.0298    4.8696  -12.5558 C   0  0  0  0  0  0  0  0  0  0  0  0
  -23.8123    5.4170  -11.7683 C   0  0  0  0  0  0  0  0  0  0  0  0
  -25.4776    4.2213  -13.6606 C   0  0  0  0  0  0  0  0  0  0  0  0
  -23.2601    4.7684  -12.8731 C   0  0  0  0  0  0  0  0  0  0  0  0
  -24.0927    4.1706  -13.8192 C   0  0  0  0  0  0  0  0  0  0  0  0
  -25.1873    9.3193   -4.9895 O   0  0  0  0  0  0  0  0  0  0  0  0
  -25.5741   10.3689   -2.1693 O   0  0  0  0  0  0  0  0  0  0  0  0
  -26.3331    9.8841   -4.3616 C   0  0  0  0  0  0  0  0  0  0  0  0
  -26.9446    8.8861   -3.4090 C   0  0  0  0  0  0  0  0  0  0  0  0
  -25.8886   10.9906   -3.4274 C   0  0  0  0  0  0  0  0  0  0  0  0
  -26.0477    9.0157   -2.1941 C   0  0  0  0  0  0  0  0  0  0  0  0
 23 28  1  0
 24 30  1  0
 32 35  1  0
 32 36  1  0
 31 33  1  0
 31  3  1  0
 11 13  2  0
 12  4  1  0
 12 13  1  0
 12 14  1  0
  1  7  2  0
  1 10  1  0
 21  9  1  0
 21 25  1  0
 21 22  1  0
  2  9  1  0
  2 10  2  0
 18 17  1  0
 18 19  1  0
 18 20  1  0
 33 34  1  0
 33 35  1  0
 34 36  1  0
  3  4  1  0
  3  5  2  0
  4  8  2  0
  5  7  1  0
  6  7  1  0
  6  8  1  0
  6  9  2  0
 13 15  1  0
 25 26  2  0
 25 27  1  0
 15 16  2  0
 17 16  1  0
 26 28  1  0
 27 29  2  0
 28 30  2  0
 29 30  1  0
M  END
> <PUBCHEM_COMPOUND_CID>
10184653

> <PUBCHEM_CONFORMER_RMSD>
1

> <PUBCHEM_CONFORMER_DIVERSEORDER>
1
55
19
37
62
57
35
28
53
34
56
41
17
51
59
61
43
13
31
50
33
32
60
25
54
27
8
16
20
12
38
65
9
48
40
7
21
44
18
47
10
29
58
4
45
6
15
11
22
63
30
39
52
23
36
26
46
49
64
14
24
42
3
5
2

> <PUBCHEM_MMFF94_PARTIAL_CHARGES>
42
1 -0.18
10 -0.81
11 0.28
13 0.28
14 0.28
15 0.08
16 0.12
17 -0.15
19 0.31
2 -0.19
20 -0.15
21 0.41
22 0.62
23 0.47
24 0.1
25 -0.14
26 0.41
27 -0.29
28 -0.15
29 -0.15
3 -0.56
30 0.18
31 -0.15
32 0.27
33 0.27
34 0.19
4 -0.36
42 0.15
43 0.15
44 0.37
45 0.4
46 0.15
47 0.15
5 -0.57
50 0.15
51 0.15
52 0.15
53 0.15
6 -0.55
7 -0.62
8 -0.6
9 -0.62

> <PUBCHEM_EFFECTIVE_ROTOR_COUNT>
10

> <PUBCHEM_PHARMACOPHORE_FEATURES>
12
1 10 cation
1 3 acceptor
1 4 acceptor
1 5 acceptor
1 6 donor
1 8 donor
3 7 9 23 cation
3 8 9 21 cation
5 3 11 12 13 14 rings
6 15 16 17 18 19 20 rings
6 24 28 29 30 31 34 rings
6 7 9 18 19 21 23 rings

> <PUBCHEM_HEAVY_ATOM_COUNT>
34

> <PUBCHEM_ATOM_DEF_STEREO_COUNT>
1

> <PUBCHEM_ATOM_UDEF_STEREO_COUNT>
0

> <PUBCHEM_BOND_DEF_STEREO_COUNT>
1

> <PUBCHEM_BOND_UDEF_STEREO_COUNT>
0

> <PUBCHEM_ISOTOPIC_ATOM_COUNT>
0

> <PUBCHEM_COMPONENT_COUNT>
1

> <PUBCHEM_CACTVS_TAUTO_COUNT>
6

> <PUBCHEM_CONFORMER_ID>
009B67CD00000001

> <PUBCHEM_MMFF94_ENERGY>
118.3863

> <PUBCHEM_FEATURE_SELFOVERLAP>
61.069

> <PUBCHEM_SHAPE_FINGERPRINT>
10050765 1 18409731725397260590
102385 1 18338237050937012855
10581848 127 18267048157042201945
10675989 125 17765712421274760985
10816530 23 18120663422938000737
10939801 23 17974850889678323372
12107183 9 18190160323388426594
12741549 16 17460587263948438879
12788726 201 18115875276836333234
12925494 130 18339077065050983644
13140716 1 17687186800226601262
13383665 225 18190204393246121460
13540713 4 18271814480219722286
14028597 1 17603577578055265275
14068700 686 18341337759526122742
14190465 44 18336823074577052925
14294032 229 18338254728900680980
14394314 77 17618513515589478757
14395042 24 18187930642324558101
14790565 3 18049448033442953445
15400415 2 17976265634705014989
15439362 3 18123748656634030244
19309040 13 18059285444874715076
19427546 62 18049165458685693621
20238998 120 18194403527617411343
23845131 108 18193558857484026109
24771293 8 18127703836151030955
27425 322 17908984301971085317
469060 322 18266194995910524210
550186 72 18265899249300781597
57527585 21 18269534161279665167
6004065 56 17976261562775526063
653340 110 18410019840245178567
9555976 147 18191279677237576986
9777508 108 18337114441401685095
9849439 229 18338796689486291428
9896288 288 18408602587053135962
9961470 85 18268707200098131368

> <PUBCHEM_SHAPE_MULTIPOLES>
651.79
16.98
9.14
1.35
16.63
7.82
0.79
16.53
7.63
-22.03
1.12
1.11
0.38
1.78

> <PUBCHEM_SHAPE_SELFOVERLAP>
1393.544

> <PUBCHEM_SHAPE_VOLUME>
363.9

> <PUBCHEM_COORDINATE_TYPE>
2
5
10

> <minimizedAffinity>
-5.37795

> <CNNscore>
0.2687391639

> <CNNaffinity>
5.8583030701

> <CNN_VS>
1.5743554831

> <CNNaffinity_variance>
0.0546439737

$$$$
10184653


 36 39  0  0  0  0  0  0  0  0999 V2000
    7.4505    6.9010  -18.6138 N   0  0  0  0  0  0  0  0  0  0  0  0
    8.7182    5.4366  -20.0471 N   0  0  0  0  0  0  0  0  0  0  0  0
    8.6723    6.6266  -15.1719 C   0  0  0  0  0  0  0  0  0  0  0  0
    9.6897    5.6894  -15.3126 C   0  0  0  0  0  0  0  0  0  0  0  0
    7.9279    7.0256  -16.2860 C   0  0  0  0  0  0  0  0  0  0  0  0
    9.2072    5.5594  -17.6831 C   0  0  0  0  0  0  0  0  0  0  0  0
    8.1771    6.5054  -17.5538 C   0  0  0  0  0  0  0  0  0  0  0  0
    9.9603    5.1531  -16.5677 C   0  0  0  0  0  0  0  0  0  0  0  0
    9.4264    5.0624  -18.9648 C   0  0  0  0  0  0  0  0  0  0  0  0
    7.7608    6.3456  -19.8028 C   0  0  0  0  0  0  0  0  0  0  0  0
   10.1417    2.9465  -14.1787 O   0  0  0  0  0  0  0  0  0  0  0  0
   10.4428    5.2798  -14.2102 N   0  0  0  0  0  0  0  0  0  0  0  0
   10.6202    3.9783  -13.7229 C   0  0  0  0  0  0  0  0  0  0  0  0
   10.9120    6.0349  -13.7141 H   0  0  0  0  0  0  0  0  0  0  0  0
   11.5024    3.9578  -12.5181 C   0  0  0  0  0  0  0  0  0  0  0  0
   12.6070    3.1986  -12.4963 C   0  0  0  0  0  0  0  0  0  0  0  0
   13.5400    3.1389  -11.3238 C   0  0  0  0  0  0  0  0  0  0  0  0
   14.9114    2.8690  -11.7433 N   0  0  0  0  0  0  0  0  0  0  0  0
   14.9700    2.6272  -13.1855 C   0  0  0  0  0  0  0  0  0  0  0  0
   15.7893    3.9818  -11.3782 C   0  0  0  0  0  0  0  0  0  0  0  0
   10.4488    4.1038  -19.1734 N   0  0  0  0  0  0  0  0  0  0  0  0
   11.3338    4.5249  -19.4426 H   0  0  0  0  0  0  0  0  0  0  0  0
    9.0663   -0.5040  -17.4132 Cl  0  0  0  0  0  0  0  0  0  0  0  0
   10.3396   -1.3756  -19.9447 F   0  0  0  0  0  0  0  0  0  0  0  0
   10.4190    2.7133  -19.3651 C   0  0  0  0  0  0  0  0  0  0  0  0
    9.8275    1.8893  -18.4074 C   0  0  0  0  0  0  0  0  0  0  0  0
   10.9813    2.1559  -20.5133 C   0  0  0  0  0  0  0  0  0  0  0  0
    9.7980    0.5079  -18.5983 C   0  0  0  0  0  0  0  0  0  0  0  0
   10.9520    0.7743  -20.7041 C   0  0  0  0  0  0  0  0  0  0  0  0
   10.3603   -0.0497  -19.7466 C   0  0  0  0  0  0  0  0  0  0  0  0
    8.3829    7.1698  -13.9555 O   0  0  0  0  0  0  0  0  0  0  0  0
    8.7121    8.8168  -11.4289 O   0  0  0  0  0  0  0  0  0  0  0  0
    8.6610    8.5552  -13.7839 C   0  0  0  0  0  0  0  0  0  0  0  0
    7.4112    9.2833  -13.3535 C   0  0  0  0  0  0  0  0  0  0  0  0
    9.5666    8.7316  -12.5825 C   0  0  0  0  0  0  0  0  0  0  0  0
    7.3570    8.9723  -11.8711 C   0  0  0  0  0  0  0  0  0  0  0  0
 23 28  1  0
 24 30  1  0
 32 35  1  0
 32 36  1  0
 31 33  1  0
 31  3  1  0
 11 13  2  0
 12  4  1  0
 12 13  1  0
 12 14  1  0
  1  7  2  0
  1 10  1  0
 21  9  1  0
 21 25  1  0
 21 22  1  0
  2  9  1  0
  2 10  2  0
 18 17  1  0
 18 19  1  0
 18 20  1  0
 33 34  1  0
 33 35  1  0
 34 36  1  0
  3  4  1  0
  3  5  2  0
  4  8  2  0
  5  7  1  0
  6  7  1  0
  6  8  1  0
  6  9  2  0
 13 15  1  0
 25 26  2  0
 25 27  1  0
 15 16  2  0
 17 16  1  0
 26 28  1  0
 27 29  2  0
 28 30  2  0
 29 30  1  0
M  END
> <PUBCHEM_COMPOUND_CID>
10184653

> <PUBCHEM_CONFORMER_RMSD>
1

> <PUBCHEM_CONFORMER_DIVERSEORDER>
1
55
19
37
62
57
35
28
53
34
56
41
17
51
59
61
43
13
31
50
33
32
60
25
54
27
8
16
20
12
38
65
9
48
40
7
21
44
18
47
10
29
58
4
45
6
15
11
22
63
30
39
52
23
36
26
46
49
64
14
24
42
3
5
2

> <PUBCHEM_MMFF94_PARTIAL_CHARGES>
42
1 -0.18
10 -0.81
11 0.28
13 0.28
14 0.28
15 0.08
16 0.12
17 -0.15
19 0.31
2 -0.19
20 -0.15
21 0.41
22 0.62
23 0.47
24 0.1
25 -0.14
26 0.41
27 -0.29
28 -0.15
29 -0.15
3 -0.56
30 0.18
31 -0.15
32 0.27
33 0.27
34 0.19
4 -0.36
42 0.15
43 0.15
44 0.37
45 0.4
46 0.15
47 0.15
5 -0.57
50 0.15
51 0.15
52 0.15
53 0.15
6 -0.55
7 -0.62
8 -0.6
9 -0.62

> <PUBCHEM_EFFECTIVE_ROTOR_COUNT>
10

> <PUBCHEM_PHARMACOPHORE_FEATURES>
12
1 10 cation
1 3 acceptor
1 4 acceptor
1 5 acceptor
1 6 donor
1 8 donor
3 7 9 23 cation
3 8 9 21 cation
5 3 11 12 13 14 rings
6 15 16 17 18 19 20 rings
6 24 28 29 30 31 34 rings
6 7 9 18 19 21 23 rings

> <PUBCHEM_HEAVY_ATOM_COUNT>
34

> <PUBCHEM_ATOM_DEF_STEREO_COUNT>
1

> <PUBCHEM_ATOM_UDEF_STEREO_COUNT>
0

> <PUBCHEM_BOND_DEF_STEREO_COUNT>
1

> <PUBCHEM_BOND_UDEF_STEREO_COUNT>
0

> <PUBCHEM_ISOTOPIC_ATOM_COUNT>
0

> <PUBCHEM_COMPONENT_COUNT>
1

> <PUBCHEM_CACTVS_TAUTO_COUNT>
6

> <PUBCHEM_CONFORMER_ID>
009B67CD00000001

> <PUBCHEM_MMFF94_ENERGY>
118.3863

> <PUBCHEM_FEATURE_SELFOVERLAP>
61.069

> <PUBCHEM_SHAPE_FINGERPRINT>
10050765 1 18409731725397260590
102385 1 18338237050937012855
10581848 127 18267048157042201945
10675989 125 17765712421274760985
10816530 23 18120663422938000737
10939801 23 17974850889678323372
12107183 9 18190160323388426594
12741549 16 17460587263948438879
12788726 201 18115875276836333234
12925494 130 18339077065050983644
13140716 1 17687186800226601262
13383665 225 18190204393246121460
13540713 4 18271814480219722286
14028597 1 17603577578055265275
14068700 686 18341337759526122742
14190465 44 18336823074577052925
14294032 229 18338254728900680980
14394314 77 17618513515589478757
14395042 24 18187930642324558101
14790565 3 18049448033442953445
15400415 2 17976265634705014989
15439362 3 18123748656634030244
19309040 13 18059285444874715076
19427546 62 18049165458685693621
20238998 120 18194403527617411343
23845131 108 18193558857484026109
24771293 8 18127703836151030955
27425 322 17908984301971085317
469060 322 18266194995910524210
550186 72 18265899249300781597
57527585 21 18269534161279665167
6004065 56 17976261562775526063
653340 110 18410019840245178567
9555976 147 18191279677237576986
9777508 108 18337114441401685095
9849439 229 18338796689486291428
9896288 288 18408602587053135962
9961470 85 18268707200098131368

> <PUBCHEM_SHAPE_MULTIPOLES>
651.79
16.98
9.14
1.35
16.63
7.82
0.79
16.53
7.63
-22.03
1.12
1.11
0.38
1.78

> <PUBCHEM_SHAPE_SELFOVERLAP>
1393.544

> <PUBCHEM_SHAPE_VOLUME>
363.9

> <PUBCHEM_COORDINATE_TYPE>
2
5
10

> <minimizedAffinity>
-5.47678

> <CNNscore>
0.2413745075

> <CNNaffinity>
5.3684897423

> <CNN_VS>
1.2958165407

> <CNNaffinity_variance>
0.3334005773

$$$$
10184653


 36 39  0  0  0  0  0  0  0  0999 V2000
  -24.9736    0.0003   -2.4996 N   0  0  0  0  0  0  0  0  0  0  0  0
  -23.8086   -0.8262   -4.4403 N   0  0  0  0  0  0  0  0  0  0  0  0
  -25.5296    3.6051   -2.8316 C   0  0  0  0  0  0  0  0  0  0  0  0
  -24.9462    3.8632   -4.0670 C   0  0  0  0  0  0  0  0  0  0  0  0
  -25.5330    2.3057   -2.3157 C   0  0  0  0  0  0  0  0  0  0  0  0
  -24.3746    1.5168   -4.2585 C   0  0  0  0  0  0  0  0  0  0  0  0
  -24.9609    1.2435   -3.0117 C   0  0  0  0  0  0  0  0  0  0  0  0
  -24.3672    2.8207   -4.7839 C   0  0  0  0  0  0  0  0  0  0  0  0
  -23.8133    0.4305   -4.9238 C   0  0  0  0  0  0  0  0  0  0  0  0
  -24.3972   -0.9670   -3.2418 C   0  0  0  0  0  0  0  0  0  0  0  0
  -26.9345    5.2594   -5.8308 O   0  0  0  0  0  0  0  0  0  0  0  0
  -24.9340    5.1553   -4.5967 N   0  0  0  0  0  0  0  0  0  0  0  0
  -25.8942    5.7590   -5.4190 C   0  0  0  0  0  0  0  0  0  0  0  0
  -24.1188    5.7095   -4.3419 H   0  0  0  0  0  0  0  0  0  0  0  0
  -25.5127    7.1586   -5.7737 C   0  0  0  0  0  0  0  0  0  0  0  0
  -25.9296    8.1885   -5.0235 C   0  0  0  0  0  0  0  0  0  0  0  0
  -25.5757    9.6157   -5.3180 C   0  0  0  0  0  0  0  0  0  0  0  0
  -25.3330   10.3712   -4.0933 N   0  0  0  0  0  0  0  0  0  0  0  0
  -25.1465   11.7914   -4.3934 C   0  0  0  0  0  0  0  0  0  0  0  0
  -26.4383   10.1916   -3.1507 C   0  0  0  0  0  0  0  0  0  0  0  0
  -23.2027    0.6287   -6.1869 N   0  0  0  0  0  0  0  0  0  0  0  0
  -22.9020    1.5887   -6.3322 H   0  0  0  0  0  0  0  0  0  0  0  0
  -20.9227   -2.9988   -8.9947 Cl  0  0  0  0  0  0  0  0  0  0  0  0
  -23.1669   -2.3816  -10.8310 F   0  0  0  0  0  0  0  0  0  0  0  0
  -23.1898   -0.1369   -7.3637 C   0  0  0  0  0  0  0  0  0  0  0  0
  -22.1816   -1.0780   -7.5730 C   0  0  0  0  0  0  0  0  0  0  0  0
  -24.1854    0.0438   -8.3237 C   0  0  0  0  0  0  0  0  0  0  0  0
  -22.1692   -1.8387   -8.7421 C   0  0  0  0  0  0  0  0  0  0  0  0
  -24.1728   -0.7167   -9.4930 C   0  0  0  0  0  0  0  0  0  0  0  0
  -23.1649   -1.6580   -9.7022 C   0  0  0  0  0  0  0  0  0  0  0  0
  -26.1043    4.6054   -2.1052 O   0  0  0  0  0  0  0  0  0  0  0  0
  -26.8872    6.4057    0.2080 O   0  0  0  0  0  0  0  0  0  0  0  0
  -25.3080    5.2058   -1.0895 C   0  0  0  0  0  0  0  0  0  0  0  0
  -25.1398    6.6792   -1.3686 C   0  0  0  0  0  0  0  0  0  0  0  0
  -26.0869    5.2108    0.2097 C   0  0  0  0  0  0  0  0  0  0  0  0
  -26.4511    7.2495   -0.8662 C   0  0  0  0  0  0  0  0  0  0  0  0
 23 28  1  0
 24 30  1  0
 32 35  1  0
 32 36  1  0
 31 33  1  0
 31  3  1  0
 11 13  2  0
 12  4  1  0
 12 13  1  0
 12 14  1  0
  1  7  2  0
  1 10  1  0
 21  9  1  0
 21 25  1  0
 21 22  1  0
  2  9  1  0
  2 10  2  0
 18 17  1  0
 18 19  1  0
 18 20  1  0
 33 34  1  0
 33 35  1  0
 34 36  1  0
  3  4  1  0
  3  5  2  0
  4  8  2  0
  5  7  1  0
  6  7  1  0
  6  8  1  0
  6  9  2  0
 13 15  1  0
 25 26  2  0
 25 27  1  0
 15 16  2  0
 17 16  1  0
 26 28  1  0
 27 29  2  0
 28 30  2  0
 29 30  1  0
M  END
> <PUBCHEM_COMPOUND_CID>
10184653

> <PUBCHEM_CONFORMER_RMSD>
1

> <PUBCHEM_CONFORMER_DIVERSEORDER>
1
55
19
37
62
57
35
28
53
34
56
41
17
51
59
61
43
13
31
50
33
32
60
25
54
27
8
16
20
12
38
65
9
48
40
7
21
44
18
47
10
29
58
4
45
6
15
11
22
63
30
39
52
23
36
26
46
49
64
14
24
42
3
5
2

> <PUBCHEM_MMFF94_PARTIAL_CHARGES>
42
1 -0.18
10 -0.81
11 0.28
13 0.28
14 0.28
15 0.08
16 0.12
17 -0.15
19 0.31
2 -0.19
20 -0.15
21 0.41
22 0.62
23 0.47
24 0.1
25 -0.14
26 0.41
27 -0.29
28 -0.15
29 -0.15
3 -0.56
30 0.18
31 -0.15
32 0.27
33 0.27
34 0.19
4 -0.36
42 0.15
43 0.15
44 0.37
45 0.4
46 0.15
47 0.15
5 -0.57
50 0.15
51 0.15
52 0.15
53 0.15
6 -0.55
7 -0.62
8 -0.6
9 -0.62

> <PUBCHEM_EFFECTIVE_ROTOR_COUNT>
10

> <PUBCHEM_PHARMACOPHORE_FEATURES>
12
1 10 cation
1 3 acceptor
1 4 acceptor
1 5 acceptor
1 6 donor
1 8 donor
3 7 9 23 cation
3 8 9 21 cation
5 3 11 12 13 14 rings
6 15 16 17 18 19 20 rings
6 24 28 29 30 31 34 rings
6 7 9 18 19 21 23 rings

> <PUBCHEM_HEAVY_ATOM_COUNT>
34

> <PUBCHEM_ATOM_DEF_STEREO_COUNT>
1

> <PUBCHEM_ATOM_UDEF_STEREO_COUNT>
0

> <PUBCHEM_BOND_DEF_STEREO_COUNT>
1

> <PUBCHEM_BOND_UDEF_STEREO_COUNT>
0

> <PUBCHEM_ISOTOPIC_ATOM_COUNT>
0

> <PUBCHEM_COMPONENT_COUNT>
1

> <PUBCHEM_CACTVS_TAUTO_COUNT>
6

> <PUBCHEM_CONFORMER_ID>
009B67CD00000001

> <PUBCHEM_MMFF94_ENERGY>
118.3863

> <PUBCHEM_FEATURE_SELFOVERLAP>
61.069

> <PUBCHEM_SHAPE_FINGERPRINT>
10050765 1 18409731725397260590
102385 1 18338237050937012855
10581848 127 18267048157042201945
10675989 125 17765712421274760985
10816530 23 18120663422938000737
10939801 23 17974850889678323372
12107183 9 18190160323388426594
12741549 16 17460587263948438879
12788726 201 18115875276836333234
12925494 130 18339077065050983644
13140716 1 17687186800226601262
13383665 225 18190204393246121460
13540713 4 18271814480219722286
14028597 1 17603577578055265275
14068700 686 18341337759526122742
14190465 44 18336823074577052925
14294032 229 18338254728900680980
14394314 77 17618513515589478757
14395042 24 18187930642324558101
14790565 3 18049448033442953445
15400415 2 17976265634705014989
15439362 3 18123748656634030244
19309040 13 18059285444874715076
19427546 62 18049165458685693621
20238998 120 18194403527617411343
23845131 108 18193558857484026109
24771293 8 18127703836151030955
27425 322 17908984301971085317
469060 322 18266194995910524210
550186 72 18265899249300781597
57527585 21 18269534161279665167
6004065 56 17976261562775526063
653340 110 18410019840245178567
9555976 147 18191279677237576986
9777508 108 18337114441401685095
9849439 229 18338796689486291428
9896288 288 18408602587053135962
9961470 85 18268707200098131368

> <PUBCHEM_SHAPE_MULTIPOLES>
651.79
16.98
9.14
1.35
16.63
7.82
0.79
16.53
7.63
-22.03
1.12
1.11
0.38
1.78

> <PUBCHEM_SHAPE_SELFOVERLAP>
1393.544

> <PUBCHEM_SHAPE_VOLUME>
363.9

> <PUBCHEM_COORDINATE_TYPE>
2
5
10

> <minimizedAffinity>
-5.58808

> <CNNscore>
0.2358051986

> <CNNaffinity>
5.9837603569

> <CNN_VS>
1.4110018015

> <CNNaffinity_variance>
0.0174456965

$$$$
