121269225


 43 47  0  0  0  0  0  0  0  0999 V2000
   -9.4602    3.1457  -12.3707 N   0  0  0  0  0  0  0  0  0  0  0  0
   -8.9576    3.7376  -13.0252 H   0  0  0  0  0  0  0  0  0  0  0  0
   -9.7673    2.7855  -10.0769 N   0  0  0  0  0  0  0  0  0  0  0  0
   -9.1108    4.9474  -10.9150 N   0  0  0  0  0  0  0  0  0  0  0  0
   -9.4452    3.6507  -11.0573 C   0  0  0  0  0  0  0  0  0  0  0  0
   -9.7434    3.3025   -8.8309 C   0  0  0  0  0  0  0  0  0  0  0  0
   -9.4173    4.6140   -8.5511 C   0  0  0  0  0  0  0  0  0  0  0  0
   -9.1068    5.3981   -9.6434 C   0  0  0  0  0  0  0  0  0  0  0  0
  -10.0645    2.4652   -7.7738 N   0  0  0  0  0  0  0  0  0  0  0  0
  -10.0617    1.1311   -7.9360 N   0  0  0  0  0  0  0  0  0  0  0  0
  -10.6377    1.7152   -5.8041 C   0  0  0  0  0  0  0  0  0  0  0  0
  -10.4127    0.6783   -6.7293 C   0  0  0  0  0  0  0  0  0  0  0  0
  -10.4029    2.8668   -6.5150 C   0  0  0  0  0  0  0  0  0  0  0  0
  -10.5240   -0.7381   -6.4919 C   0  0  0  0  0  0  0  0  0  0  0  0
   -9.4085   -1.5605   -6.6494 C   0  0  0  0  0  0  0  0  0  0  0  0
  -11.7463   -1.2873   -6.1053 C   0  0  0  0  0  0  0  0  0  0  0  0
   -9.5155   -2.9324   -6.4201 C   0  0  0  0  0  0  0  0  0  0  0  0
  -11.8535   -2.6589   -5.8760 C   0  0  0  0  0  0  0  0  0  0  0  0
  -10.7379   -3.4815   -6.0335 C   0  0  0  0  0  0  0  0  0  0  0  0
  -11.0361    1.6111   -4.3894 C   0  0  0  0  0  0  0  0  0  0  0  0
   -9.9089    1.7824   -3.4602 N   0  0  0  0  0  0  0  0  0  0  0  0
   -9.7506    3.1920   -3.1162 C   0  0  0  0  0  0  0  0  0  0  0  0
   -8.6844    1.2531   -4.0522 C   0  0  0  0  0  0  0  0  0  0  0  0
  -11.5398   -0.0450  -14.1457 C   0  0  0  0  0  0  0  0  0  0  0  0
  -11.2967   -0.0436  -12.7721 C   0  0  0  0  0  0  0  0  0  0  0  0
  -11.0916    1.0147  -14.9342 C   0  0  0  0  0  0  0  0  0  0  0  0
  -10.4004    2.0758  -14.3492 C   0  0  0  0  0  0  0  0  0  0  0  0
  -10.6055    1.0174  -12.1871 C   0  0  0  0  0  0  0  0  0  0  0  0
  -10.1575    2.0770  -12.9755 C   0  0  0  0  0  0  0  0  0  0  0  0
  -13.6795   -3.3061  -15.7160 O   0  0  0  0  0  0  0  0  0  0  0  0
  -12.2327   -1.0974  -14.7529 N   0  0  0  0  0  0  0  0  0  0  0  0
  -13.6861   -1.1780  -14.5525 C   0  0  0  0  0  0  0  0  0  0  0  0
  -11.5612   -2.3821  -14.9778 C   0  0  0  0  0  0  0  0  0  0  0  0
  -14.3113   -2.0276  -15.6530 C   0  0  0  0  0  0  0  0  0  0  0  0
  -12.3000   -3.1682  -16.0552 C   0  0  0  0  0  0  0  0  0  0  0  0
   -9.7375   -2.0486  -11.1699 O   0  0  0  0  0  0  0  0  0  0  0  0
  -11.7371   -1.0946  -11.9623 N   0  0  0  0  0  0  0  0  0  0  0  0
  -10.9604   -2.0037  -11.2340 C   0  0  0  0  0  0  0  0  0  0  0  0
  -12.7490   -1.1922  -11.9075 H   0  0  0  0  0  0  0  0  0  0  0  0
  -11.8103   -2.9801  -10.4925 C   0  0  0  0  0  0  0  0  0  0  0  0
  -11.2696   -3.8029   -9.5884 C   0  0  0  0  0  0  0  0  0  0  0  0
   -9.9717    3.1023  -15.1367 O   0  0  0  0  0  0  0  0  0  0  0  0
  -10.9429    3.7232  -15.9761 C   0  0  0  0  0  0  0  0  0  0  0  0
 30 34  1  0
 30 35  1  0
 42 27  1  0
 42 43  1  0
 36 38  2  0
 31 32  1  0
 31 33  1  0
 31 24  1  0
 37 25  1  0
 37 38  1  0
 37 39  1  0
  1 29  1  0
  1  5  1  0
  1  2  1  0
  9 10  1  0
  9 13  1  0
  9  6  1  0
 21 20  1  0
 21 22  1  0
 21 23  1  0
 10 12  2  0
  3  5  2  0
  3  6  1  0
  4  5  1  0
  4  8  2  0
 32 34  1  0
 33 35  1  0
 24 25  2  0
 24 26  1  0
 25 28  1  0
 26 27  2  0
 27 29  1  0
 28 29  2  0
 11 20  1  0
 11 12  1  0
 11 13  2  0
 12 14  1  0
  6  7  2  0
 14 15  2  0
 14 16  1  0
 38 40  1  0
  7  8  1  0
 15 17  1  0
 16 18  2  0
 40 41  2  0
 17 19  2  0
 18 19  1  0
M  END
> <PUBCHEM_COMPOUND_CID>
121269225

> <PUBCHEM_CONFORMER_RMSD>
1.2

> <PUBCHEM_CONFORMER_DIVERSEORDER>
1
31
30
33
22
2
39
40
42
24
12
19
13
34
32
21
11
18
5
17
38
16
37
14
6
10
23
41
20
8
26
9
35
27
3
25
7
29
36
15
28
4

> <PUBCHEM_MMFF94_PARTIAL_CHARGES>
56
1 -0.56
10 -0.62
11 -0.62
12 0.37
13 0.37
14 0.1
15 0.28
16 0.28
17 0.12
18 -0.15
19 0.08
2 -0.36
20 -0.15
21 0.1
22 -0.18
23 0.45
24 0.23
25 -0.3
26 0.72
27 0.29
28 0.05
29 0.62
3 -0.57
30 0.27
31 0.27
32 -0.15
33 0.28
34 -0.15
35 -0.15
36 0.16
37 -0.14
38 -0.15
39 -0.15
4 -0.84
40 -0.15
41 -0.3
5 -0.55
50 0.15
51 0.15
52 0.37
53 0.4
56 0.15
6 -0.6
63 0.15
67 0.15
68 0.15
69 0.15
7 0.59
70 0.15
71 0.15
72 0.15
73 0.15
74 0.15
75 0.15
8 -0.81
9 -0.71

> <PUBCHEM_EFFECTIVE_ROTOR_COUNT>
12.2

> <PUBCHEM_PHARMACOPHORE_FEATURES>
15
1 1 acceptor
1 2 acceptor
1 3 acceptor
1 4 cation
1 41 hydrophobe
1 5 donor
1 6 donor
1 8 cation
1 9 acceptor
4 6 10 11 26 cation
5 7 9 22 24 25 rings
6 1 4 12 13 15 16 rings
6 10 11 26 27 32 36 rings
6 14 17 18 19 20 21 rings
6 28 34 35 38 39 40 rings

> <PUBCHEM_HEAVY_ATOM_COUNT>
41

> <PUBCHEM_ATOM_DEF_STEREO_COUNT>
0

> <PUBCHEM_ATOM_UDEF_STEREO_COUNT>
0

> <PUBCHEM_BOND_DEF_STEREO_COUNT>
0

> <PUBCHEM_BOND_UDEF_STEREO_COUNT>
0

> <PUBCHEM_ISOTOPIC_ATOM_COUNT>
0

> <PUBCHEM_COMPONENT_COUNT>
1

> <PUBCHEM_CACTVS_TAUTO_COUNT>
21

> <PUBCHEM_CONFORMER_ID>
073A6BE900000001

> <PUBCHEM_MMFF94_ENERGY>
152.827

> <PUBCHEM_FEATURE_SELFOVERLAP>
76.123

> <PUBCHEM_SHAPE_FINGERPRINT>
10462674 296 18055900229362274326
117089 54 18263092144354338331
11963148 33 18115585942575997050
12107698 1 18337393841724322403
12559416 138 18339348712874340727
13560911 23 18408602557088241267
14279260 333 18187357693993441490
14394314 77 18337110056029612200
15001296 14 18265896865773273624
15021287 119 18341047531706515807
15064986 96 18059864904782135415
15444296 121 18408895039955283246
16110190 28 18341895182268168492
19311894 1 18339911736691467118
19319366 153 17760935438911142901
19611394 137 18261683687065550115
19841028 212 18117559742109845515
208703 8 18336543905992583145
21033648 29 17631719491893857602
25019877 29 17275108357344291455
25222932 49 18408041814642871966
3383291 50 18337952393284008379
4461854 278 18130515235522043406
44880168 125 17560794378212456590
9896288 288 18270402668086312625

> <PUBCHEM_SHAPE_MULTIPOLES>
786.3
19.57
6.26
1.77
11.23
3.91
0.4
-14.21
5.68
-4.91
-0.06
-0.46
-1.67
-2

> <PUBCHEM_SHAPE_SELFOVERLAP>
1697.64

> <PUBCHEM_SHAPE_VOLUME>
430.8

> <PUBCHEM_COORDINATE_TYPE>
2
5
10

> <minimizedAffinity>
-8.55809

> <CNNscore>
0.9174343348

> <CNNaffinity>
8.4193429947

> <CNN_VS>
7.7241945267

> <CNNaffinity_variance>
0.0373805203

$$$$
121269225


 43 47  0  0  0  0  0  0  0  0999 V2000
  -10.7065    1.2560  -11.6403 N   0  0  0  0  0  0  0  0  0  0  0  0
  -11.2585    0.6859  -11.0065 H   0  0  0  0  0  0  0  0  0  0  0  0
  -10.3778    2.5146   -9.6926 N   0  0  0  0  0  0  0  0  0  0  0  0
   -9.5011    3.2572  -11.8109 N   0  0  0  0  0  0  0  0  0  0  0  0
  -10.1690    2.3978  -11.0178 C   0  0  0  0  0  0  0  0  0  0  0  0
   -9.8497    3.6205   -9.1283 C   0  0  0  0  0  0  0  0  0  0  0  0
   -9.1440    4.5768   -9.8299 C   0  0  0  0  0  0  0  0  0  0  0  0
   -8.9996    4.3403  -11.1817 C   0  0  0  0  0  0  0  0  0  0  0  0
  -10.0274    3.8028   -7.7657 N   0  0  0  0  0  0  0  0  0  0  0  0
  -10.1460    5.0395   -7.2534 N   0  0  0  0  0  0  0  0  0  0  0  0
  -10.2771    3.4419   -5.6260 C   0  0  0  0  0  0  0  0  0  0  0  0
  -10.2982    4.8126   -5.9458 C   0  0  0  0  0  0  0  0  0  0  0  0
  -10.0991    2.8104   -6.8328 C   0  0  0  0  0  0  0  0  0  0  0  0
  -10.4605    5.9158   -5.0339 C   0  0  0  0  0  0  0  0  0  0  0  0
  -11.2750    6.9932   -5.3818 C   0  0  0  0  0  0  0  0  0  0  0  0
   -9.8032    5.9072   -3.8037 C   0  0  0  0  0  0  0  0  0  0  0  0
  -11.4324    8.0622   -4.4994 C   0  0  0  0  0  0  0  0  0  0  0  0
   -9.9604    6.9758   -2.9214 C   0  0  0  0  0  0  0  0  0  0  0  0
  -10.7751    8.0534   -3.2693 C   0  0  0  0  0  0  0  0  0  0  0  0
  -10.4126    2.8068   -4.3035 C   0  0  0  0  0  0  0  0  0  0  0  0
  -10.0741    1.3754   -4.3152 N   0  0  0  0  0  0  0  0  0  0  0  0
  -10.9300    0.6488   -3.3825 C   0  0  0  0  0  0  0  0  0  0  0  0
   -8.6662    1.1889   -3.9790 C   0  0  0  0  0  0  0  0  0  0  0  0
  -10.1009   -0.4452  -15.4344 C   0  0  0  0  0  0  0  0  0  0  0  0
  -10.2892    0.9308  -15.3044 C   0  0  0  0  0  0  0  0  0  0  0  0
  -10.1138   -1.2607  -14.3028 C   0  0  0  0  0  0  0  0  0  0  0  0
  -10.3151   -0.7003  -13.0413 C   0  0  0  0  0  0  0  0  0  0  0  0
  -10.4905    1.4913  -14.0430 C   0  0  0  0  0  0  0  0  0  0  0  0
  -10.5033    0.6758  -12.9116 C   0  0  0  0  0  0  0  0  0  0  0  0
   -9.4368   -1.9419  -19.3070 O   0  0  0  0  0  0  0  0  0  0  0  0
   -9.8953   -1.0282  -16.6890 N   0  0  0  0  0  0  0  0  0  0  0  0
   -8.5517   -0.9495  -17.2787 C   0  0  0  0  0  0  0  0  0  0  0  0
  -10.9979   -1.0950  -17.6543 C   0  0  0  0  0  0  0  0  0  0  0  0
   -8.3909   -2.0321  -18.3398 C   0  0  0  0  0  0  0  0  0  0  0  0
  -10.7065   -2.1693  -18.6962 C   0  0  0  0  0  0  0  0  0  0  0  0
  -12.1661    3.1358  -16.1005 O   0  0  0  0  0  0  0  0  0  0  0  0
  -10.2796    1.7674  -16.4244 N   0  0  0  0  0  0  0  0  0  0  0  0
  -11.1856    2.7850  -16.7464 C   0  0  0  0  0  0  0  0  0  0  0  0
   -9.5108    1.6013  -17.0708 H   0  0  0  0  0  0  0  0  0  0  0  0
  -10.8284    3.4501  -18.0331 C   0  0  0  0  0  0  0  0  0  0  0  0
  -10.5527    4.7575  -18.0690 C   0  0  0  0  0  0  0  0  0  0  0  0
  -10.3231   -1.5139  -11.9479 O   0  0  0  0  0  0  0  0  0  0  0  0
  -11.4252   -2.4090  -11.8155 C   0  0  0  0  0  0  0  0  0  0  0  0
 30 34  1  0
 30 35  1  0
 42 27  1  0
 42 43  1  0
 36 38  2  0
 31 32  1  0
 31 33  1  0
 31 24  1  0
 37 25  1  0
 37 38  1  0
 37 39  1  0
  1 29  1  0
  1  5  1  0
  1  2  1  0
  9 10  1  0
  9 13  1  0
  9  6  1  0
 21 20  1  0
 21 22  1  0
 21 23  1  0
 10 12  2  0
  3  5  2  0
  3  6  1  0
  4  5  1  0
  4  8  2  0
 32 34  1  0
 33 35  1  0
 24 25  2  0
 24 26  1  0
 25 28  1  0
 26 27  2  0
 27 29  1  0
 28 29  2  0
 11 20  1  0
 11 12  1  0
 11 13  2  0
 12 14  1  0
  6  7  2  0
 14 15  2  0
 14 16  1  0
 38 40  1  0
  7  8  1  0
 15 17  1  0
 16 18  2  0
 40 41  2  0
 17 19  2  0
 18 19  1  0
M  END
> <PUBCHEM_COMPOUND_CID>
121269225

> <PUBCHEM_CONFORMER_RMSD>
1.2

> <PUBCHEM_CONFORMER_DIVERSEORDER>
1
31
30
33
22
2
39
40
42
24
12
19
13
34
32
21
11
18
5
17
38
16
37
14
6
10
23
41
20
8
26
9
35
27
3
25
7
29
36
15
28
4

> <PUBCHEM_MMFF94_PARTIAL_CHARGES>
56
1 -0.56
10 -0.62
11 -0.62
12 0.37
13 0.37
14 0.1
15 0.28
16 0.28
17 0.12
18 -0.15
19 0.08
2 -0.36
20 -0.15
21 0.1
22 -0.18
23 0.45
24 0.23
25 -0.3
26 0.72
27 0.29
28 0.05
29 0.62
3 -0.57
30 0.27
31 0.27
32 -0.15
33 0.28
34 -0.15
35 -0.15
36 0.16
37 -0.14
38 -0.15
39 -0.15
4 -0.84
40 -0.15
41 -0.3
5 -0.55
50 0.15
51 0.15
52 0.37
53 0.4
56 0.15
6 -0.6
63 0.15
67 0.15
68 0.15
69 0.15
7 0.59
70 0.15
71 0.15
72 0.15
73 0.15
74 0.15
75 0.15
8 -0.81
9 -0.71

> <PUBCHEM_EFFECTIVE_ROTOR_COUNT>
12.2

> <PUBCHEM_PHARMACOPHORE_FEATURES>
15
1 1 acceptor
1 2 acceptor
1 3 acceptor
1 4 cation
1 41 hydrophobe
1 5 donor
1 6 donor
1 8 cation
1 9 acceptor
4 6 10 11 26 cation
5 7 9 22 24 25 rings
6 1 4 12 13 15 16 rings
6 10 11 26 27 32 36 rings
6 14 17 18 19 20 21 rings
6 28 34 35 38 39 40 rings

> <PUBCHEM_HEAVY_ATOM_COUNT>
41

> <PUBCHEM_ATOM_DEF_STEREO_COUNT>
0

> <PUBCHEM_ATOM_UDEF_STEREO_COUNT>
0

> <PUBCHEM_BOND_DEF_STEREO_COUNT>
0

> <PUBCHEM_BOND_UDEF_STEREO_COUNT>
0

> <PUBCHEM_ISOTOPIC_ATOM_COUNT>
0

> <PUBCHEM_COMPONENT_COUNT>
1

> <PUBCHEM_CACTVS_TAUTO_COUNT>
21

> <PUBCHEM_CONFORMER_ID>
073A6BE900000001

> <PUBCHEM_MMFF94_ENERGY>
152.827

> <PUBCHEM_FEATURE_SELFOVERLAP>
76.123

> <PUBCHEM_SHAPE_FINGERPRINT>
10462674 296 18055900229362274326
117089 54 18263092144354338331
11963148 33 18115585942575997050
12107698 1 18337393841724322403
12559416 138 18339348712874340727
13560911 23 18408602557088241267
14279260 333 18187357693993441490
14394314 77 18337110056029612200
15001296 14 18265896865773273624
15021287 119 18341047531706515807
15064986 96 18059864904782135415
15444296 121 18408895039955283246
16110190 28 18341895182268168492
19311894 1 18339911736691467118
19319366 153 17760935438911142901
19611394 137 18261683687065550115
19841028 212 18117559742109845515
208703 8 18336543905992583145
21033648 29 17631719491893857602
25019877 29 17275108357344291455
25222932 49 18408041814642871966
3383291 50 18337952393284008379
4461854 278 18130515235522043406
44880168 125 17560794378212456590
9896288 288 18270402668086312625

> <PUBCHEM_SHAPE_MULTIPOLES>
786.3
19.57
6.26
1.77
11.23
3.91
0.4
-14.21
5.68
-4.91
-0.06
-0.46
-1.67
-2

> <PUBCHEM_SHAPE_SELFOVERLAP>
1697.64

> <PUBCHEM_SHAPE_VOLUME>
430.8

> <PUBCHEM_COORDINATE_TYPE>
2
5
10

> <minimizedAffinity>
-9.34406

> <CNNscore>
0.7776393294

> <CNNaffinity>
8.0048952103

> <CNN_VS>
6.2249212265

> <CNNaffinity_variance>
0.3454891145

$$$$
121269225


 43 47  0  0  0  0  0  0  0  0999 V2000
   -9.1542  -10.9450   -5.7588 N   0  0  0  0  0  0  0  0  0  0  0  0
   -9.5617  -11.6670   -6.3453 H   0  0  0  0  0  0  0  0  0  0  0  0
   -8.6875  -12.0970   -3.7737 N   0  0  0  0  0  0  0  0  0  0  0  0
   -6.9098  -11.2378   -5.1553 N   0  0  0  0  0  0  0  0  0  0  0  0
   -8.2045  -11.4512   -4.8522 C   0  0  0  0  0  0  0  0  0  0  0  0
   -7.7502  -12.5687   -2.9255 C   0  0  0  0  0  0  0  0  0  0  0  0
   -6.3926  -12.4167   -3.1216 C   0  0  0  0  0  0  0  0  0  0  0  0
   -6.0270  -11.7360   -4.2650 C   0  0  0  0  0  0  0  0  0  0  0  0
   -8.1792  -13.2448   -1.7939 N   0  0  0  0  0  0  0  0  0  0  0  0
   -8.0145  -12.7051   -0.5742 N   0  0  0  0  0  0  0  0  0  0  0  0
   -9.0327  -14.7465   -0.4571 C   0  0  0  0  0  0  0  0  0  0  0  0
   -8.5378  -13.6271    0.2385 C   0  0  0  0  0  0  0  0  0  0  0  0
   -8.7842  -14.4671   -1.7788 C   0  0  0  0  0  0  0  0  0  0  0  0
   -8.5509  -13.4129    1.6628 C   0  0  0  0  0  0  0  0  0  0  0  0
   -9.3203  -14.2368    2.4841 C   0  0  0  0  0  0  0  0  0  0  0  0
   -7.7952  -12.3820    2.2207 C   0  0  0  0  0  0  0  0  0  0  0  0
   -9.3340  -14.0297    3.8636 C   0  0  0  0  0  0  0  0  0  0  0  0
   -7.8086  -12.1747    3.5999 C   0  0  0  0  0  0  0  0  0  0  0  0
   -8.5782  -12.9987    4.4214 C   0  0  0  0  0  0  0  0  0  0  0  0
   -9.6748  -15.9549    0.0891 C   0  0  0  0  0  0  0  0  0  0  0  0
  -11.0831  -16.0901   -0.3134 N   0  0  0  0  0  0  0  0  0  0  0  0
  -11.1689  -16.5721   -1.6884 C   0  0  0  0  0  0  0  0  0  0  0  0
  -11.7723  -14.8117   -0.1688 C   0  0  0  0  0  0  0  0  0  0  0  0
  -10.2827   -7.0443   -6.8391 C   0  0  0  0  0  0  0  0  0  0  0  0
  -10.3309   -8.0742   -7.7787 C   0  0  0  0  0  0  0  0  0  0  0  0
   -9.8585   -7.3079   -5.5367 C   0  0  0  0  0  0  0  0  0  0  0  0
   -9.4825   -8.6012   -5.1739 C   0  0  0  0  0  0  0  0  0  0  0  0
   -9.9548   -9.3676   -7.4159 C   0  0  0  0  0  0  0  0  0  0  0  0
   -9.5307   -9.6310   -6.1136 C   0  0  0  0  0  0  0  0  0  0  0  0
  -11.5316   -3.2301   -8.0923 O   0  0  0  0  0  0  0  0  0  0  0  0
  -10.6572   -5.7407   -7.1804 N   0  0  0  0  0  0  0  0  0  0  0  0
  -12.0884   -5.4078   -7.1811 C   0  0  0  0  0  0  0  0  0  0  0  0
   -9.8350   -4.9641   -8.1148 C   0  0  0  0  0  0  0  0  0  0  0  0
  -12.2660   -3.8981   -7.0666 C   0  0  0  0  0  0  0  0  0  0  0  0
  -10.1331   -3.4779   -7.9512 C   0  0  0  0  0  0  0  0  0  0  0  0
  -12.9783   -8.5987   -9.0956 O   0  0  0  0  0  0  0  0  0  0  0  0
  -10.7533   -7.8334   -9.0894 N   0  0  0  0  0  0  0  0  0  0  0  0
  -12.0073   -8.0998   -9.6521 C   0  0  0  0  0  0  0  0  0  0  0  0
  -10.0489   -7.4109   -9.6908 H   0  0  0  0  0  0  0  0  0  0  0  0
  -12.0612   -7.6955  -11.0871 C   0  0  0  0  0  0  0  0  0  0  0  0
  -11.5212   -8.4708  -12.0326 C   0  0  0  0  0  0  0  0  0  0  0  0
   -9.0720   -8.8385   -3.8960 O   0  0  0  0  0  0  0  0  0  0  0  0
  -10.0436   -8.6809   -2.8644 C   0  0  0  0  0  0  0  0  0  0  0  0
 30 34  1  0
 30 35  1  0
 42 27  1  0
 42 43  1  0
 36 38  2  0
 31 32  1  0
 31 33  1  0
 31 24  1  0
 37 25  1  0
 37 38  1  0
 37 39  1  0
  1 29  1  0
  1  5  1  0
  1  2  1  0
  9 10  1  0
  9 13  1  0
  9  6  1  0
 21 20  1  0
 21 22  1  0
 21 23  1  0
 10 12  2  0
  3  5  2  0
  3  6  1  0
  4  5  1  0
  4  8  2  0
 32 34  1  0
 33 35  1  0
 24 25  2  0
 24 26  1  0
 25 28  1  0
 26 27  2  0
 27 29  1  0
 28 29  2  0
 11 20  1  0
 11 12  1  0
 11 13  2  0
 12 14  1  0
  6  7  2  0
 14 15  2  0
 14 16  1  0
 38 40  1  0
  7  8  1  0
 15 17  1  0
 16 18  2  0
 40 41  2  0
 17 19  2  0
 18 19  1  0
M  END
> <PUBCHEM_COMPOUND_CID>
121269225

> <PUBCHEM_CONFORMER_RMSD>
1.2

> <PUBCHEM_CONFORMER_DIVERSEORDER>
1
31
30
33
22
2
39
40
42
24
12
19
13
34
32
21
11
18
5
17
38
16
37
14
6
10
23
41
20
8
26
9
35
27
3
25
7
29
36
15
28
4

> <PUBCHEM_MMFF94_PARTIAL_CHARGES>
56
1 -0.56
10 -0.62
11 -0.62
12 0.37
13 0.37
14 0.1
15 0.28
16 0.28
17 0.12
18 -0.15
19 0.08
2 -0.36
20 -0.15
21 0.1
22 -0.18
23 0.45
24 0.23
25 -0.3
26 0.72
27 0.29
28 0.05
29 0.62
3 -0.57
30 0.27
31 0.27
32 -0.15
33 0.28
34 -0.15
35 -0.15
36 0.16
37 -0.14
38 -0.15
39 -0.15
4 -0.84
40 -0.15
41 -0.3
5 -0.55
50 0.15
51 0.15
52 0.37
53 0.4
56 0.15
6 -0.6
63 0.15
67 0.15
68 0.15
69 0.15
7 0.59
70 0.15
71 0.15
72 0.15
73 0.15
74 0.15
75 0.15
8 -0.81
9 -0.71

> <PUBCHEM_EFFECTIVE_ROTOR_COUNT>
12.2

> <PUBCHEM_PHARMACOPHORE_FEATURES>
15
1 1 acceptor
1 2 acceptor
1 3 acceptor
1 4 cation
1 41 hydrophobe
1 5 donor
1 6 donor
1 8 cation
1 9 acceptor
4 6 10 11 26 cation
5 7 9 22 24 25 rings
6 1 4 12 13 15 16 rings
6 10 11 26 27 32 36 rings
6 14 17 18 19 20 21 rings
6 28 34 35 38 39 40 rings

> <PUBCHEM_HEAVY_ATOM_COUNT>
41

> <PUBCHEM_ATOM_DEF_STEREO_COUNT>
0

> <PUBCHEM_ATOM_UDEF_STEREO_COUNT>
0

> <PUBCHEM_BOND_DEF_STEREO_COUNT>
0

> <PUBCHEM_BOND_UDEF_STEREO_COUNT>
0

> <PUBCHEM_ISOTOPIC_ATOM_COUNT>
0

> <PUBCHEM_COMPONENT_COUNT>
1

> <PUBCHEM_CACTVS_TAUTO_COUNT>
21

> <PUBCHEM_CONFORMER_ID>
073A6BE900000001

> <PUBCHEM_MMFF94_ENERGY>
152.827

> <PUBCHEM_FEATURE_SELFOVERLAP>
76.123

> <PUBCHEM_SHAPE_FINGERPRINT>
10462674 296 18055900229362274326
117089 54 18263092144354338331
11963148 33 18115585942575997050
12107698 1 18337393841724322403
12559416 138 18339348712874340727
13560911 23 18408602557088241267
14279260 333 18187357693993441490
14394314 77 18337110056029612200
15001296 14 18265896865773273624
15021287 119 18341047531706515807
15064986 96 18059864904782135415
15444296 121 18408895039955283246
16110190 28 18341895182268168492
19311894 1 18339911736691467118
19319366 153 17760935438911142901
19611394 137 18261683687065550115
19841028 212 18117559742109845515
208703 8 18336543905992583145
21033648 29 17631719491893857602
25019877 29 17275108357344291455
25222932 49 18408041814642871966
3383291 50 18337952393284008379
4461854 278 18130515235522043406
44880168 125 17560794378212456590
9896288 288 18270402668086312625

> <PUBCHEM_SHAPE_MULTIPOLES>
786.3
19.57
6.26
1.77
11.23
3.91
0.4
-14.21
5.68
-4.91
-0.06
-0.46
-1.67
-2

> <PUBCHEM_SHAPE_SELFOVERLAP>
1697.64

> <PUBCHEM_SHAPE_VOLUME>
430.8

> <PUBCHEM_COORDINATE_TYPE>
2
5
10

> <minimizedAffinity>
-6.85322

> <CNNscore>
0.2369031459

> <CNNaffinity>
5.8294720650

> <CNN_VS>
1.3810203075

> <CNNaffinity_variance>
0.4410459101

$$$$
121269225


 43 47  0  0  0  0  0  0  0  0999 V2000
    7.1930  -16.4884  -18.0408 N   0  0  0  0  0  0  0  0  0  0  0  0
    7.4640  -17.4485  -17.8506 H   0  0  0  0  0  0  0  0  0  0  0  0
    5.1653  -16.8868  -16.9384 N   0  0  0  0  0  0  0  0  0  0  0  0
    5.2498  -15.5229  -18.9234 N   0  0  0  0  0  0  0  0  0  0  0  0
    5.8021  -16.2895  -17.9638 C   0  0  0  0  0  0  0  0  0  0  0  0
    3.8334  -16.6758  -16.8951 C   0  0  0  0  0  0  0  0  0  0  0  0
    3.1479  -15.9109  -17.8169 C   0  0  0  0  0  0  0  0  0  0  0  0
    3.9154  -15.3535  -18.8191 C   0  0  0  0  0  0  0  0  0  0  0  0
    3.1160  -17.2618  -15.8638 N   0  0  0  0  0  0  0  0  0  0  0  0
    1.8024  -17.0160  -15.7219 N   0  0  0  0  0  0  0  0  0  0  0  0
    2.5679  -18.4396  -14.1079 C   0  0  0  0  0  0  0  0  0  0  0  0
    1.4731  -17.7382  -14.6475 C   0  0  0  0  0  0  0  0  0  0  0  0
    3.6232  -18.1084  -14.9224 C   0  0  0  0  0  0  0  0  0  0  0  0
    0.1164  -17.7387  -14.1638 C   0  0  0  0  0  0  0  0  0  0  0  0
   -0.3724  -16.6388  -13.4591 C   0  0  0  0  0  0  0  0  0  0  0  0
   -0.7084  -18.8386  -14.3994 C   0  0  0  0  0  0  0  0  0  0  0  0
   -1.6862  -16.6386  -12.9899 C   0  0  0  0  0  0  0  0  0  0  0  0
   -2.0219  -18.8386  -13.9303 C   0  0  0  0  0  0  0  0  0  0  0  0
   -2.5108  -17.7386  -13.2256 C   0  0  0  0  0  0  0  0  0  0  0  0
    2.5974  -19.3316  -12.9356 C   0  0  0  0  0  0  0  0  0  0  0  0
    2.8761  -18.6206  -11.6785 N   0  0  0  0  0  0  0  0  0  0  0  0
    1.6404  -18.4261  -10.9264 C   0  0  0  0  0  0  0  0  0  0  0  0
    3.5199  -17.3407  -11.9569 C   0  0  0  0  0  0  0  0  0  0  0  0
   10.4302  -13.8353  -18.4118 C   0  0  0  0  0  0  0  0  0  0  0  0
    9.9676  -14.2054  -17.1490 C   0  0  0  0  0  0  0  0  0  0  0  0
    9.8174  -14.3460  -19.5562 C   0  0  0  0  0  0  0  0  0  0  0  0
    8.7422  -15.2266  -19.4376 C   0  0  0  0  0  0  0  0  0  0  0  0
    8.8923  -15.0860  -17.0304 C   0  0  0  0  0  0  0  0  0  0  0  0
    8.2798  -15.5966  -18.1746 C   0  0  0  0  0  0  0  0  0  0  0  0
   13.6742  -11.2534  -19.1112 O   0  0  0  0  0  0  0  0  0  0  0  0
   11.5082  -12.9555  -18.5541 N   0  0  0  0  0  0  0  0  0  0  0  0
   11.3113  -11.7416  -19.3584 C   0  0  0  0  0  0  0  0  0  0  0  0
   12.8815  -13.4706  -18.5269 C   0  0  0  0  0  0  0  0  0  0  0  0
   12.3632  -10.7023  -18.9879 C   0  0  0  0  0  0  0  0  0  0  0  0
   13.8501  -12.3390  -18.2015 C   0  0  0  0  0  0  0  0  0  0  0  0
    9.6630  -11.5429  -15.7937 O   0  0  0  0  0  0  0  0  0  0  0  0
   10.5667  -13.7067  -15.9885 N   0  0  0  0  0  0  0  0  0  0  0  0
   10.3864  -12.4497  -15.3988 C   0  0  0  0  0  0  0  0  0  0  0  0
   11.2068  -14.3526  -15.5308 H   0  0  0  0  0  0  0  0  0  0  0  0
   11.2090  -12.3008  -14.1633 C   0  0  0  0  0  0  0  0  0  0  0  0
   10.8546  -11.4321  -13.2111 C   0  0  0  0  0  0  0  0  0  0  0  0
    8.1578  -15.7154  -20.5678 O   0  0  0  0  0  0  0  0  0  0  0  0
    8.6777  -15.2587  -21.8146 C   0  0  0  0  0  0  0  0  0  0  0  0
 30 34  1  0
 30 35  1  0
 42 27  1  0
 42 43  1  0
 36 38  2  0
 31 32  1  0
 31 33  1  0
 31 24  1  0
 37 25  1  0
 37 38  1  0
 37 39  1  0
  1 29  1  0
  1  5  1  0
  1  2  1  0
  9 10  1  0
  9 13  1  0
  9  6  1  0
 21 20  1  0
 21 22  1  0
 21 23  1  0
 10 12  2  0
  3  5  2  0
  3  6  1  0
  4  5  1  0
  4  8  2  0
 32 34  1  0
 33 35  1  0
 24 25  2  0
 24 26  1  0
 25 28  1  0
 26 27  2  0
 27 29  1  0
 28 29  2  0
 11 20  1  0
 11 12  1  0
 11 13  2  0
 12 14  1  0
  6  7  2  0
 14 15  2  0
 14 16  1  0
 38 40  1  0
  7  8  1  0
 15 17  1  0
 16 18  2  0
 40 41  2  0
 17 19  2  0
 18 19  1  0
M  END
> <PUBCHEM_COMPOUND_CID>
121269225

> <PUBCHEM_CONFORMER_RMSD>
1.2

> <PUBCHEM_CONFORMER_DIVERSEORDER>
1
31
30
33
22
2
39
40
42
24
12
19
13
34
32
21
11
18
5
17
38
16
37
14
6
10
23
41
20
8
26
9
35
27
3
25
7
29
36
15
28
4

> <PUBCHEM_MMFF94_PARTIAL_CHARGES>
56
1 -0.56
10 -0.62
11 -0.62
12 0.37
13 0.37
14 0.1
15 0.28
16 0.28
17 0.12
18 -0.15
19 0.08
2 -0.36
20 -0.15
21 0.1
22 -0.18
23 0.45
24 0.23
25 -0.3
26 0.72
27 0.29
28 0.05
29 0.62
3 -0.57
30 0.27
31 0.27
32 -0.15
33 0.28
34 -0.15
35 -0.15
36 0.16
37 -0.14
38 -0.15
39 -0.15
4 -0.84
40 -0.15
41 -0.3
5 -0.55
50 0.15
51 0.15
52 0.37
53 0.4
56 0.15
6 -0.6
63 0.15
67 0.15
68 0.15
69 0.15
7 0.59
70 0.15
71 0.15
72 0.15
73 0.15
74 0.15
75 0.15
8 -0.81
9 -0.71

> <PUBCHEM_EFFECTIVE_ROTOR_COUNT>
12.2

> <PUBCHEM_PHARMACOPHORE_FEATURES>
15
1 1 acceptor
1 2 acceptor
1 3 acceptor
1 4 cation
1 41 hydrophobe
1 5 donor
1 6 donor
1 8 cation
1 9 acceptor
4 6 10 11 26 cation
5 7 9 22 24 25 rings
6 1 4 12 13 15 16 rings
6 10 11 26 27 32 36 rings
6 14 17 18 19 20 21 rings
6 28 34 35 38 39 40 rings

> <PUBCHEM_HEAVY_ATOM_COUNT>
41

> <PUBCHEM_ATOM_DEF_STEREO_COUNT>
0

> <PUBCHEM_ATOM_UDEF_STEREO_COUNT>
0

> <PUBCHEM_BOND_DEF_STEREO_COUNT>
0

> <PUBCHEM_BOND_UDEF_STEREO_COUNT>
0

> <PUBCHEM_ISOTOPIC_ATOM_COUNT>
0

> <PUBCHEM_COMPONENT_COUNT>
1

> <PUBCHEM_CACTVS_TAUTO_COUNT>
21

> <PUBCHEM_CONFORMER_ID>
073A6BE900000001

> <PUBCHEM_MMFF94_ENERGY>
152.827

> <PUBCHEM_FEATURE_SELFOVERLAP>
76.123

> <PUBCHEM_SHAPE_FINGERPRINT>
10462674 296 18055900229362274326
117089 54 18263092144354338331
11963148 33 18115585942575997050
12107698 1 18337393841724322403
12559416 138 18339348712874340727
13560911 23 18408602557088241267
14279260 333 18187357693993441490
14394314 77 18337110056029612200
15001296 14 18265896865773273624
15021287 119 18341047531706515807
15064986 96 18059864904782135415
15444296 121 18408895039955283246
16110190 28 18341895182268168492
19311894 1 18339911736691467118
19319366 153 17760935438911142901
19611394 137 18261683687065550115
19841028 212 18117559742109845515
208703 8 18336543905992583145
21033648 29 17631719491893857602
25019877 29 17275108357344291455
25222932 49 18408041814642871966
3383291 50 18337952393284008379
4461854 278 18130515235522043406
44880168 125 17560794378212456590
9896288 288 18270402668086312625

> <PUBCHEM_SHAPE_MULTIPOLES>
786.3
19.57
6.26
1.77
11.23
3.91
0.4
-14.21
5.68
-4.91
-0.06
-0.46
-1.67
-2

> <PUBCHEM_SHAPE_SELFOVERLAP>
1697.64

> <PUBCHEM_SHAPE_VOLUME>
430.8

> <PUBCHEM_COORDINATE_TYPE>
2
5
10

> <minimizedAffinity>
-6.44840

> <CNNscore>
0.1486948431

> <CNNaffinity>
5.7100081444

> <CNN_VS>
0.8490487933

> <CNNaffinity_variance>
0.5732666254

$$$$
121269225


 43 47  0  0  0  0  0  0  0  0999 V2000
    8.9276    8.5547  -10.8679 N   0  0  0  0  0  0  0  0  0  0  0  0
    8.1309    8.2209  -10.3339 H   0  0  0  0  0  0  0  0  0  0  0  0
    9.7372    9.7269   -9.0088 N   0  0  0  0  0  0  0  0  0  0  0  0
    9.7196   10.7344  -11.1979 N   0  0  0  0  0  0  0  0  0  0  0  0
    9.4888    9.7288  -10.3324 C   0  0  0  0  0  0  0  0  0  0  0  0
   10.2744   10.8677   -8.5288 C   0  0  0  0  0  0  0  0  0  0  0  0
   10.5590   11.9692   -9.3101 C   0  0  0  0  0  0  0  0  0  0  0  0
   10.2575   11.8443  -10.6509 C   0  0  0  0  0  0  0  0  0  0  0  0
   10.5559   10.9331   -7.1731 N   0  0  0  0  0  0  0  0  0  0  0  0
   10.9198    9.8292   -6.4986 N   0  0  0  0  0  0  0  0  0  0  0  0
   10.8543   11.6609   -5.1354 C   0  0  0  0  0  0  0  0  0  0  0  0
   11.1007   10.2800   -5.2542 C   0  0  0  0  0  0  0  0  0  0  0  0
   10.5013   12.0571   -6.4023 C   0  0  0  0  0  0  0  0  0  0  0  0
   11.5057    9.3759   -4.2086 C   0  0  0  0  0  0  0  0  0  0  0  0
   10.6119    9.0424   -3.1911 C   0  0  0  0  0  0  0  0  0  0  0  0
   12.7911    8.8345   -4.2129 C   0  0  0  0  0  0  0  0  0  0  0  0
   11.0035    8.1672   -2.1778 C   0  0  0  0  0  0  0  0  0  0  0  0
   13.1828    7.9595   -3.1999 C   0  0  0  0  0  0  0  0  0  0  0  0
   12.2889    7.6258   -2.1823 C   0  0  0  0  0  0  0  0  0  0  0  0
   10.9472   12.5087   -3.9339 C   0  0  0  0  0  0  0  0  0  0  0  0
    9.6781   12.6020   -3.1961 N   0  0  0  0  0  0  0  0  0  0  0  0
    9.0381   13.8874   -3.4573 C   0  0  0  0  0  0  0  0  0  0  0  0
    9.9130   12.4212   -1.7670 C   0  0  0  0  0  0  0  0  0  0  0  0
   10.1835    5.9344  -13.9031 C   0  0  0  0  0  0  0  0  0  0  0  0
   10.7810    5.8868  -12.6435 C   0  0  0  0  0  0  0  0  0  0  0  0
    9.1662    6.8541  -14.1580 C   0  0  0  0  0  0  0  0  0  0  0  0
    8.7465    7.7262  -13.1535 C   0  0  0  0  0  0  0  0  0  0  0  0
   10.3614    6.7589  -11.6390 C   0  0  0  0  0  0  0  0  0  0  0  0
    9.3442    7.6784  -11.8939 C   0  0  0  0  0  0  0  0  0  0  0  0
   11.3588    3.5395  -17.1530 O   0  0  0  0  0  0  0  0  0  0  0  0
   10.5870    5.0680  -14.9243 N   0  0  0  0  0  0  0  0  0  0  0  0
   11.8423    5.3632  -15.6288 C   0  0  0  0  0  0  0  0  0  0  0  0
    9.5811    4.3503  -15.7149 C   0  0  0  0  0  0  0  0  0  0  0  0
   12.3619    4.1002  -16.3061 C   0  0  0  0  0  0  0  0  0  0  0  0
   10.2213    3.1415  -16.3884 C   0  0  0  0  0  0  0  0  0  0  0  0
   10.6474    2.9507  -12.0274 O   0  0  0  0  0  0  0  0  0  0  0  0
   11.8017    4.9730  -12.3653 N   0  0  0  0  0  0  0  0  0  0  0  0
   11.6807    3.6070  -12.0835 C   0  0  0  0  0  0  0  0  0  0  0  0
   12.7395    5.3690  -12.3758 H   0  0  0  0  0  0  0  0  0  0  0  0
   13.0111    2.9774  -11.8406 C   0  0  0  0  0  0  0  0  0  0  0  0
   13.8677    3.5139  -10.9658 C   0  0  0  0  0  0  0  0  0  0  0  0
    7.7504    8.6168  -13.4221 O   0  0  0  0  0  0  0  0  0  0  0  0
    8.0443    9.6546  -14.3547 C   0  0  0  0  0  0  0  0  0  0  0  0
 30 34  1  0
 30 35  1  0
 42 27  1  0
 42 43  1  0
 36 38  2  0
 31 32  1  0
 31 33  1  0
 31 24  1  0
 37 25  1  0
 37 38  1  0
 37 39  1  0
  1 29  1  0
  1  5  1  0
  1  2  1  0
  9 10  1  0
  9 13  1  0
  9  6  1  0
 21 20  1  0
 21 22  1  0
 21 23  1  0
 10 12  2  0
  3  5  2  0
  3  6  1  0
  4  5  1  0
  4  8  2  0
 32 34  1  0
 33 35  1  0
 24 25  2  0
 24 26  1  0
 25 28  1  0
 26 27  2  0
 27 29  1  0
 28 29  2  0
 11 20  1  0
 11 12  1  0
 11 13  2  0
 12 14  1  0
  6  7  2  0
 14 15  2  0
 14 16  1  0
 38 40  1  0
  7  8  1  0
 15 17  1  0
 16 18  2  0
 40 41  2  0
 17 19  2  0
 18 19  1  0
M  END
> <PUBCHEM_COMPOUND_CID>
121269225

> <PUBCHEM_CONFORMER_RMSD>
1.2

> <PUBCHEM_CONFORMER_DIVERSEORDER>
1
31
30
33
22
2
39
40
42
24
12
19
13
34
32
21
11
18
5
17
38
16
37
14
6
10
23
41
20
8
26
9
35
27
3
25
7
29
36
15
28
4

> <PUBCHEM_MMFF94_PARTIAL_CHARGES>
56
1 -0.56
10 -0.62
11 -0.62
12 0.37
13 0.37
14 0.1
15 0.28
16 0.28
17 0.12
18 -0.15
19 0.08
2 -0.36
20 -0.15
21 0.1
22 -0.18
23 0.45
24 0.23
25 -0.3
26 0.72
27 0.29
28 0.05
29 0.62
3 -0.57
30 0.27
31 0.27
32 -0.15
33 0.28
34 -0.15
35 -0.15
36 0.16
37 -0.14
38 -0.15
39 -0.15
4 -0.84
40 -0.15
41 -0.3
5 -0.55
50 0.15
51 0.15
52 0.37
53 0.4
56 0.15
6 -0.6
63 0.15
67 0.15
68 0.15
69 0.15
7 0.59
70 0.15
71 0.15
72 0.15
73 0.15
74 0.15
75 0.15
8 -0.81
9 -0.71

> <PUBCHEM_EFFECTIVE_ROTOR_COUNT>
12.2

> <PUBCHEM_PHARMACOPHORE_FEATURES>
15
1 1 acceptor
1 2 acceptor
1 3 acceptor
1 4 cation
1 41 hydrophobe
1 5 donor
1 6 donor
1 8 cation
1 9 acceptor
4 6 10 11 26 cation
5 7 9 22 24 25 rings
6 1 4 12 13 15 16 rings
6 10 11 26 27 32 36 rings
6 14 17 18 19 20 21 rings
6 28 34 35 38 39 40 rings

> <PUBCHEM_HEAVY_ATOM_COUNT>
41

> <PUBCHEM_ATOM_DEF_STEREO_COUNT>
0

> <PUBCHEM_ATOM_UDEF_STEREO_COUNT>
0

> <PUBCHEM_BOND_DEF_STEREO_COUNT>
0

> <PUBCHEM_BOND_UDEF_STEREO_COUNT>
0

> <PUBCHEM_ISOTOPIC_ATOM_COUNT>
0

> <PUBCHEM_COMPONENT_COUNT>
1

> <PUBCHEM_CACTVS_TAUTO_COUNT>
21

> <PUBCHEM_CONFORMER_ID>
073A6BE900000001

> <PUBCHEM_MMFF94_ENERGY>
152.827

> <PUBCHEM_FEATURE_SELFOVERLAP>
76.123

> <PUBCHEM_SHAPE_FINGERPRINT>
10462674 296 18055900229362274326
117089 54 18263092144354338331
11963148 33 18115585942575997050
12107698 1 18337393841724322403
12559416 138 18339348712874340727
13560911 23 18408602557088241267
14279260 333 18187357693993441490
14394314 77 18337110056029612200
15001296 14 18265896865773273624
15021287 119 18341047531706515807
15064986 96 18059864904782135415
15444296 121 18408895039955283246
16110190 28 18341895182268168492
19311894 1 18339911736691467118
19319366 153 17760935438911142901
19611394 137 18261683687065550115
19841028 212 18117559742109845515
208703 8 18336543905992583145
21033648 29 17631719491893857602
25019877 29 17275108357344291455
25222932 49 18408041814642871966
3383291 50 18337952393284008379
4461854 278 18130515235522043406
44880168 125 17560794378212456590
9896288 288 18270402668086312625

> <PUBCHEM_SHAPE_MULTIPOLES>
786.3
19.57
6.26
1.77
11.23
3.91
0.4
-14.21
5.68
-4.91
-0.06
-0.46
-1.67
-2

> <PUBCHEM_SHAPE_SELFOVERLAP>
1697.64

> <PUBCHEM_SHAPE_VOLUME>
430.8

> <PUBCHEM_COORDINATE_TYPE>
2
5
10

> <minimizedAffinity>
-6.48322

> <CNNscore>
0.1463526189

> <CNNaffinity>
5.3006978035

> <CNN_VS>
0.7757710218

> <CNNaffinity_variance>
1.0088423491

$$$$
121269225


 43 47  0  0  0  0  0  0  0  0999 V2000
   -9.4103   -4.8983    3.7469 N   0  0  0  0  0  0  0  0  0  0  0  0
   -8.4023   -4.7916    3.8085 H   0  0  0  0  0  0  0  0  0  0  0  0
   -9.4512   -6.8250    2.4157 N   0  0  0  0  0  0  0  0  0  0  0  0
  -10.5014   -6.7945    4.5845 N   0  0  0  0  0  0  0  0  0  0  0  0
   -9.8067   -6.2375    3.5742 C   0  0  0  0  0  0  0  0  0  0  0  0
   -9.8475   -8.1078    2.2830 C   0  0  0  0  0  0  0  0  0  0  0  0
  -10.5635   -8.7924    3.2439 C   0  0  0  0  0  0  0  0  0  0  0  0
  -10.8653   -8.0783    4.3855 C   0  0  0  0  0  0  0  0  0  0  0  0
   -9.5139   -8.7732    1.1135 N   0  0  0  0  0  0  0  0  0  0  0  0
   -9.1613  -10.0696    1.1440 N   0  0  0  0  0  0  0  0  0  0  0  0
   -9.1153   -9.2382   -0.9830 C   0  0  0  0  0  0  0  0  0  0  0  0
   -8.9189  -10.3481   -0.1398 C   0  0  0  0  0  0  0  0  0  0  0  0
   -9.5024   -8.2280   -0.1366 C   0  0  0  0  0  0  0  0  0  0  0  0
   -8.5047  -11.6721   -0.5275 C   0  0  0  0  0  0  0  0  0  0  0  0
   -8.3739  -11.9935   -1.8784 C   0  0  0  0  0  0  0  0  0  0  0  0
   -8.2350  -12.6327    0.4471 C   0  0  0  0  0  0  0  0  0  0  0  0
   -7.9732  -13.2756   -2.2548 C   0  0  0  0  0  0  0  0  0  0  0  0
   -7.8345  -13.9146    0.0710 C   0  0  0  0  0  0  0  0  0  0  0  0
   -7.7036  -14.2361   -1.2800 C   0  0  0  0  0  0  0  0  0  0  0  0
   -8.9486   -9.1564   -2.4447 C   0  0  0  0  0  0  0  0  0  0  0  0
  -10.1683   -8.7165   -3.1392 N   0  0  0  0  0  0  0  0  0  0  0  0
  -11.0620   -9.8505   -3.3526 C   0  0  0  0  0  0  0  0  0  0  0  0
   -9.8237   -8.0827   -4.4079 C   0  0  0  0  0  0  0  0  0  0  0  0
  -11.5630   -1.3774    4.5375 C   0  0  0  0  0  0  0  0  0  0  0  0
  -11.2758   -2.2708    5.5695 C   0  0  0  0  0  0  0  0  0  0  0  0
  -11.1357   -1.6521    3.2383 C   0  0  0  0  0  0  0  0  0  0  0  0
  -10.4212   -2.8200    2.9713 C   0  0  0  0  0  0  0  0  0  0  0  0
  -10.5613   -3.4387    5.3025 C   0  0  0  0  0  0  0  0  0  0  0  0
  -10.1340   -3.7132    4.0036 C   0  0  0  0  0  0  0  0  0  0  0  0
  -13.7137    2.2058    4.9996 O   0  0  0  0  0  0  0  0  0  0  0  0
  -12.2760   -0.1994    4.7829 N   0  0  0  0  0  0  0  0  0  0  0  0
  -13.6678   -0.1215    4.3182 C   0  0  0  0  0  0  0  0  0  0  0  0
  -11.5679    1.0835    4.8519 C   0  0  0  0  0  0  0  0  0  0  0  0
  -14.4091    0.9626    5.0922 C   0  0  0  0  0  0  0  0  0  0  0  0
  -12.4214    2.1039    5.5968 C   0  0  0  0  0  0  0  0  0  0  0  0
  -13.9998   -2.4771    6.8166 O   0  0  0  0  0  0  0  0  0  0  0  0
  -11.6934   -2.0159    6.8791 N   0  0  0  0  0  0  0  0  0  0  0  0
  -12.9845   -2.1297    7.4082 C   0  0  0  0  0  0  0  0  0  0  0  0
  -10.9528   -1.7139    7.5089 H   0  0  0  0  0  0  0  0  0  0  0  0
  -13.0184   -1.7654    8.8545 C   0  0  0  0  0  0  0  0  0  0  0  0
  -11.8984   -1.4123    9.4931 C   0  0  0  0  0  0  0  0  0  0  0  0
  -10.0116   -3.0696    1.6956 O   0  0  0  0  0  0  0  0  0  0  0  0
  -11.0288   -3.2355    0.7101 C   0  0  0  0  0  0  0  0  0  0  0  0
 30 34  1  0
 30 35  1  0
 42 27  1  0
 42 43  1  0
 36 38  2  0
 31 32  1  0
 31 33  1  0
 31 24  1  0
 37 25  1  0
 37 38  1  0
 37 39  1  0
  1 29  1  0
  1  5  1  0
  1  2  1  0
  9 10  1  0
  9 13  1  0
  9  6  1  0
 21 20  1  0
 21 22  1  0
 21 23  1  0
 10 12  2  0
  3  5  2  0
  3  6  1  0
  4  5  1  0
  4  8  2  0
 32 34  1  0
 33 35  1  0
 24 25  2  0
 24 26  1  0
 25 28  1  0
 26 27  2  0
 27 29  1  0
 28 29  2  0
 11 20  1  0
 11 12  1  0
 11 13  2  0
 12 14  1  0
  6  7  2  0
 14 15  2  0
 14 16  1  0
 38 40  1  0
  7  8  1  0
 15 17  1  0
 16 18  2  0
 40 41  2  0
 17 19  2  0
 18 19  1  0
M  END
> <PUBCHEM_COMPOUND_CID>
121269225

> <PUBCHEM_CONFORMER_RMSD>
1.2

> <PUBCHEM_CONFORMER_DIVERSEORDER>
1
31
30
33
22
2
39
40
42
24
12
19
13
34
32
21
11
18
5
17
38
16
37
14
6
10
23
41
20
8
26
9
35
27
3
25
7
29
36
15
28
4

> <PUBCHEM_MMFF94_PARTIAL_CHARGES>
56
1 -0.56
10 -0.62
11 -0.62
12 0.37
13 0.37
14 0.1
15 0.28
16 0.28
17 0.12
18 -0.15
19 0.08
2 -0.36
20 -0.15
21 0.1
22 -0.18
23 0.45
24 0.23
25 -0.3
26 0.72
27 0.29
28 0.05
29 0.62
3 -0.57
30 0.27
31 0.27
32 -0.15
33 0.28
34 -0.15
35 -0.15
36 0.16
37 -0.14
38 -0.15
39 -0.15
4 -0.84
40 -0.15
41 -0.3
5 -0.55
50 0.15
51 0.15
52 0.37
53 0.4
56 0.15
6 -0.6
63 0.15
67 0.15
68 0.15
69 0.15
7 0.59
70 0.15
71 0.15
72 0.15
73 0.15
74 0.15
75 0.15
8 -0.81
9 -0.71

> <PUBCHEM_EFFECTIVE_ROTOR_COUNT>
12.2

> <PUBCHEM_PHARMACOPHORE_FEATURES>
15
1 1 acceptor
1 2 acceptor
1 3 acceptor
1 4 cation
1 41 hydrophobe
1 5 donor
1 6 donor
1 8 cation
1 9 acceptor
4 6 10 11 26 cation
5 7 9 22 24 25 rings
6 1 4 12 13 15 16 rings
6 10 11 26 27 32 36 rings
6 14 17 18 19 20 21 rings
6 28 34 35 38 39 40 rings

> <PUBCHEM_HEAVY_ATOM_COUNT>
41

> <PUBCHEM_ATOM_DEF_STEREO_COUNT>
0

> <PUBCHEM_ATOM_UDEF_STEREO_COUNT>
0

> <PUBCHEM_BOND_DEF_STEREO_COUNT>
0

> <PUBCHEM_BOND_UDEF_STEREO_COUNT>
0

> <PUBCHEM_ISOTOPIC_ATOM_COUNT>
0

> <PUBCHEM_COMPONENT_COUNT>
1

> <PUBCHEM_CACTVS_TAUTO_COUNT>
21

> <PUBCHEM_CONFORMER_ID>
073A6BE900000001

> <PUBCHEM_MMFF94_ENERGY>
152.827

> <PUBCHEM_FEATURE_SELFOVERLAP>
76.123

> <PUBCHEM_SHAPE_FINGERPRINT>
10462674 296 18055900229362274326
117089 54 18263092144354338331
11963148 33 18115585942575997050
12107698 1 18337393841724322403
12559416 138 18339348712874340727
13560911 23 18408602557088241267
14279260 333 18187357693993441490
14394314 77 18337110056029612200
15001296 14 18265896865773273624
15021287 119 18341047531706515807
15064986 96 18059864904782135415
15444296 121 18408895039955283246
16110190 28 18341895182268168492
19311894 1 18339911736691467118
19319366 153 17760935438911142901
19611394 137 18261683687065550115
19841028 212 18117559742109845515
208703 8 18336543905992583145
21033648 29 17631719491893857602
25019877 29 17275108357344291455
25222932 49 18408041814642871966
3383291 50 18337952393284008379
4461854 278 18130515235522043406
44880168 125 17560794378212456590
9896288 288 18270402668086312625

> <PUBCHEM_SHAPE_MULTIPOLES>
786.3
19.57
6.26
1.77
11.23
3.91
0.4
-14.21
5.68
-4.91
-0.06
-0.46
-1.67
-2

> <PUBCHEM_SHAPE_SELFOVERLAP>
1697.64

> <PUBCHEM_SHAPE_VOLUME>
430.8

> <PUBCHEM_COORDINATE_TYPE>
2
5
10

> <minimizedAffinity>
-7.94626

> <CNNscore>
0.1381995976

> <CNNaffinity>
5.2674403191

> <CNN_VS>
0.7279581428

> <CNNaffinity_variance>
1.7826299667

$$$$
121269225


 43 47  0  0  0  0  0  0  0  0999 V2000
    7.1102  -24.6231   -4.3742 N   0  0  0  0  0  0  0  0  0  0  0  0
    7.0798  -25.6347   -4.4593 H   0  0  0  0  0  0  0  0  0  0  0  0
    5.4800  -23.2359   -5.3249 N   0  0  0  0  0  0  0  0  0  0  0  0
    7.2750  -24.1334   -6.6590 N   0  0  0  0  0  0  0  0  0  0  0  0
    6.5971  -23.9655   -5.5076 C   0  0  0  0  0  0  0  0  0  0  0  0
    5.0153  -22.6197   -6.4315 C   0  0  0  0  0  0  0  0  0  0  0  0
    5.6172  -22.7112   -7.6700 C   0  0  0  0  0  0  0  0  0  0  0  0
    6.7554  -23.4896   -7.7247 C   0  0  0  0  0  0  0  0  0  0  0  0
    3.8677  -21.8510   -6.3136 N   0  0  0  0  0  0  0  0  0  0  0  0
    2.8849  -22.2180   -5.4737 N   0  0  0  0  0  0  0  0  0  0  0  0
    2.3711  -20.2809   -6.5698 C   0  0  0  0  0  0  0  0  0  0  0  0
    1.9733  -21.2549   -5.6346 C   0  0  0  0  0  0  0  0  0  0  0  0
    3.6093  -20.6976   -6.9942 C   0  0  0  0  0  0  0  0  0  0  0  0
    0.7423  -21.2915   -4.8877 C   0  0  0  0  0  0  0  0  0  0  0  0
    0.6107  -20.5340   -3.7239 C   0  0  0  0  0  0  0  0  0  0  0  0
   -0.3178  -22.0842   -5.3272 C   0  0  0  0  0  0  0  0  0  0  0  0
   -0.5810  -20.5692   -2.9996 C   0  0  0  0  0  0  0  0  0  0  0  0
   -1.5094  -22.1196   -4.6032 C   0  0  0  0  0  0  0  0  0  0  0  0
   -1.6410  -21.3620   -3.4393 C   0  0  0  0  0  0  0  0  0  0  0  0
    1.6404  -19.0793   -7.0092 C   0  0  0  0  0  0  0  0  0  0  0  0
    1.1342  -19.1852   -8.3862 N   0  0  0  0  0  0  0  0  0  0  0  0
    0.5620  -20.5089   -8.6111 C   0  0  0  0  0  0  0  0  0  0  0  0
    2.2070  -18.9160   -9.3384 C   0  0  0  0  0  0  0  0  0  0  0  0
    8.2741  -23.2659   -0.5717 C   0  0  0  0  0  0  0  0  0  0  0  0
    7.1559  -24.0881   -0.7113 C   0  0  0  0  0  0  0  0  0  0  0  0
    9.0092  -22.8917   -1.6966 C   0  0  0  0  0  0  0  0  0  0  0  0
    8.6261  -23.3395   -2.9609 C   0  0  0  0  0  0  0  0  0  0  0  0
    6.7728  -24.5359   -1.9756 C   0  0  0  0  0  0  0  0  0  0  0  0
    7.5078  -24.1617   -3.1002 C   0  0  0  0  0  0  0  0  0  0  0  0
    9.6093  -21.6713    3.0825 O   0  0  0  0  0  0  0  0  0  0  0  0
    8.6775  -22.8071    0.6865 N   0  0  0  0  0  0  0  0  0  0  0  0
    8.1164  -21.5401    1.1755 C   0  0  0  0  0  0  0  0  0  0  0  0
   10.0169  -23.1320    1.1888 C   0  0  0  0  0  0  0  0  0  0  0  0
    8.2512  -21.4686    2.6922 C   0  0  0  0  0  0  0  0  0  0  0  0
   10.0509  -22.9749    2.7050 C   0  0  0  0  0  0  0  0  0  0  0  0
    4.6647  -22.8936    0.4659 O   0  0  0  0  0  0  0  0  0  0  0  0
    6.4046  -24.4763    0.4020 N   0  0  0  0  0  0  0  0  0  0  0  0
    5.2443  -23.8786    0.9082 C   0  0  0  0  0  0  0  0  0  0  0  0
    6.7607  -25.2968    0.8882 H   0  0  0  0  0  0  0  0  0  0  0  0
    4.7410  -24.5947    2.1163 C   0  0  0  0  0  0  0  0  0  0  0  0
    5.5858  -24.9886    3.0743 C   0  0  0  0  0  0  0  0  0  0  0  0
    9.3581  -22.9636   -4.0474 O   0  0  0  0  0  0  0  0  0  0  0  0
   10.6337  -23.5791   -4.2127 C   0  0  0  0  0  0  0  0  0  0  0  0
 30 34  1  0
 30 35  1  0
 42 27  1  0
 42 43  1  0
 36 38  2  0
 31 32  1  0
 31 33  1  0
 31 24  1  0
 37 25  1  0
 37 38  1  0
 37 39  1  0
  1 29  1  0
  1  5  1  0
  1  2  1  0
  9 10  1  0
  9 13  1  0
  9  6  1  0
 21 20  1  0
 21 22  1  0
 21 23  1  0
 10 12  2  0
  3  5  2  0
  3  6  1  0
  4  5  1  0
  4  8  2  0
 32 34  1  0
 33 35  1  0
 24 25  2  0
 24 26  1  0
 25 28  1  0
 26 27  2  0
 27 29  1  0
 28 29  2  0
 11 20  1  0
 11 12  1  0
 11 13  2  0
 12 14  1  0
  6  7  2  0
 14 15  2  0
 14 16  1  0
 38 40  1  0
  7  8  1  0
 15 17  1  0
 16 18  2  0
 40 41  2  0
 17 19  2  0
 18 19  1  0
M  END
> <PUBCHEM_COMPOUND_CID>
121269225

> <PUBCHEM_CONFORMER_RMSD>
1.2

> <PUBCHEM_CONFORMER_DIVERSEORDER>
1
31
30
33
22
2
39
40
42
24
12
19
13
34
32
21
11
18
5
17
38
16
37
14
6
10
23
41
20
8
26
9
35
27
3
25
7
29
36
15
28
4

> <PUBCHEM_MMFF94_PARTIAL_CHARGES>
56
1 -0.56
10 -0.62
11 -0.62
12 0.37
13 0.37
14 0.1
15 0.28
16 0.28
17 0.12
18 -0.15
19 0.08
2 -0.36
20 -0.15
21 0.1
22 -0.18
23 0.45
24 0.23
25 -0.3
26 0.72
27 0.29
28 0.05
29 0.62
3 -0.57
30 0.27
31 0.27
32 -0.15
33 0.28
34 -0.15
35 -0.15
36 0.16
37 -0.14
38 -0.15
39 -0.15
4 -0.84
40 -0.15
41 -0.3
5 -0.55
50 0.15
51 0.15
52 0.37
53 0.4
56 0.15
6 -0.6
63 0.15
67 0.15
68 0.15
69 0.15
7 0.59
70 0.15
71 0.15
72 0.15
73 0.15
74 0.15
75 0.15
8 -0.81
9 -0.71

> <PUBCHEM_EFFECTIVE_ROTOR_COUNT>
12.2

> <PUBCHEM_PHARMACOPHORE_FEATURES>
15
1 1 acceptor
1 2 acceptor
1 3 acceptor
1 4 cation
1 41 hydrophobe
1 5 donor
1 6 donor
1 8 cation
1 9 acceptor
4 6 10 11 26 cation
5 7 9 22 24 25 rings
6 1 4 12 13 15 16 rings
6 10 11 26 27 32 36 rings
6 14 17 18 19 20 21 rings
6 28 34 35 38 39 40 rings

> <PUBCHEM_HEAVY_ATOM_COUNT>
41

> <PUBCHEM_ATOM_DEF_STEREO_COUNT>
0

> <PUBCHEM_ATOM_UDEF_STEREO_COUNT>
0

> <PUBCHEM_BOND_DEF_STEREO_COUNT>
0

> <PUBCHEM_BOND_UDEF_STEREO_COUNT>
0

> <PUBCHEM_ISOTOPIC_ATOM_COUNT>
0

> <PUBCHEM_COMPONENT_COUNT>
1

> <PUBCHEM_CACTVS_TAUTO_COUNT>
21

> <PUBCHEM_CONFORMER_ID>
073A6BE900000001

> <PUBCHEM_MMFF94_ENERGY>
152.827

> <PUBCHEM_FEATURE_SELFOVERLAP>
76.123

> <PUBCHEM_SHAPE_FINGERPRINT>
10462674 296 18055900229362274326
117089 54 18263092144354338331
11963148 33 18115585942575997050
12107698 1 18337393841724322403
12559416 138 18339348712874340727
13560911 23 18408602557088241267
14279260 333 18187357693993441490
14394314 77 18337110056029612200
15001296 14 18265896865773273624
15021287 119 18341047531706515807
15064986 96 18059864904782135415
15444296 121 18408895039955283246
16110190 28 18341895182268168492
19311894 1 18339911736691467118
19319366 153 17760935438911142901
19611394 137 18261683687065550115
19841028 212 18117559742109845515
208703 8 18336543905992583145
21033648 29 17631719491893857602
25019877 29 17275108357344291455
25222932 49 18408041814642871966
3383291 50 18337952393284008379
4461854 278 18130515235522043406
44880168 125 17560794378212456590
9896288 288 18270402668086312625

> <PUBCHEM_SHAPE_MULTIPOLES>
786.3
19.57
6.26
1.77
11.23
3.91
0.4
-14.21
5.68
-4.91
-0.06
-0.46
-1.67
-2

> <PUBCHEM_SHAPE_SELFOVERLAP>
1697.64

> <PUBCHEM_SHAPE_VOLUME>
430.8

> <PUBCHEM_COORDINATE_TYPE>
2
5
10

> <minimizedAffinity>
-6.00481

> <CNNscore>
0.1300716847

> <CNNaffinity>
5.1512408257

> <CNN_VS>
0.6700305939

> <CNNaffinity_variance>
1.1111403704

$$$$
121269225


 43 47  0  0  0  0  0  0  0  0999 V2000
   -9.9676   -8.0534   -2.7884 N   0  0  0  0  0  0  0  0  0  0  0  0
   -9.3248   -8.2621   -3.5464 H   0  0  0  0  0  0  0  0  0  0  0  0
  -10.6162   -5.9185   -3.5005 N   0  0  0  0  0  0  0  0  0  0  0  0
  -12.2457   -7.6629   -3.1695 N   0  0  0  0  0  0  0  0  0  0  0  0
  -10.9928   -7.1689   -3.1715 C   0  0  0  0  0  0  0  0  0  0  0  0
  -11.6237   -5.0972   -3.8622 C   0  0  0  0  0  0  0  0  0  0  0  0
  -12.9488   -5.4806   -3.9019 C   0  0  0  0  0  0  0  0  0  0  0  0
  -13.2031   -6.7882   -3.5415 C   0  0  0  0  0  0  0  0  0  0  0  0
  -11.3056   -3.7947   -4.2141 N   0  0  0  0  0  0  0  0  0  0  0  0
  -11.6369   -3.3158   -5.4253 N   0  0  0  0  0  0  0  0  0  0  0  0
  -10.5556   -1.7437   -4.1694 C   0  0  0  0  0  0  0  0  0  0  0  0
  -11.1761   -2.0624   -5.3922 C   0  0  0  0  0  0  0  0  0  0  0  0
  -10.6561   -2.8928   -3.4235 C   0  0  0  0  0  0  0  0  0  0  0  0
  -11.3419   -1.1999   -6.5338 C   0  0  0  0  0  0  0  0  0  0  0  0
  -12.3580   -0.2445   -6.5434 C   0  0  0  0  0  0  0  0  0  0  0  0
  -10.4873   -1.3200   -7.6295 C   0  0  0  0  0  0  0  0  0  0  0  0
  -12.5196    0.5910   -7.6489 C   0  0  0  0  0  0  0  0  0  0  0  0
  -10.6486   -0.4849   -8.7349 C   0  0  0  0  0  0  0  0  0  0  0  0
  -11.6649    0.4707   -8.7445 C   0  0  0  0  0  0  0  0  0  0  0  0
   -9.9326   -0.4724   -3.7614 C   0  0  0  0  0  0  0  0  0  0  0  0
   -9.6356    0.4134   -4.8975 N   0  0  0  0  0  0  0  0  0  0  0  0
   -8.2045    0.4004   -5.1843 C   0  0  0  0  0  0  0  0  0  0  0  0
  -10.0942    1.7691   -4.6114 C   0  0  0  0  0  0  0  0  0  0  0  0
   -9.3162  -10.3458    0.6724 C   0  0  0  0  0  0  0  0  0  0  0  0
   -9.2112  -10.9333   -0.5885 C   0  0  0  0  0  0  0  0  0  0  0  0
   -9.6388   -8.9935    0.7868 C   0  0  0  0  0  0  0  0  0  0  0  0
   -9.8563   -8.2289   -0.3594 C   0  0  0  0  0  0  0  0  0  0  0  0
   -9.4288  -10.1687   -1.7347 C   0  0  0  0  0  0  0  0  0  0  0  0
   -9.7512   -8.8167   -1.6201 C   0  0  0  0  0  0  0  0  0  0  0  0
   -8.8460  -12.4231    4.2976 O   0  0  0  0  0  0  0  0  0  0  0  0
   -9.1001  -11.0929    1.8348 N   0  0  0  0  0  0  0  0  0  0  0  0
  -10.2224  -11.8699    2.3787 C   0  0  0  0  0  0  0  0  0  0  0  0
   -8.1176  -10.6381    2.8248 C   0  0  0  0  0  0  0  0  0  0  0  0
   -9.6925  -12.9727    3.2880 C   0  0  0  0  0  0  0  0  0  0  0  0
   -7.7003  -11.8064    3.7111 C   0  0  0  0  0  0  0  0  0  0  0  0
   -7.2648  -12.2890   -2.4302 O   0  0  0  0  0  0  0  0  0  0  0  0
   -8.8884  -12.2864   -0.7272 N   0  0  0  0  0  0  0  0  0  0  0  0
   -7.9671  -12.8655   -1.6080 C   0  0  0  0  0  0  0  0  0  0  0  0
   -9.3947  -12.9092   -0.1009 H   0  0  0  0  0  0  0  0  0  0  0  0
   -7.9120  -14.3476   -1.4473 C   0  0  0  0  0  0  0  0  0  0  0  0
   -9.0311  -15.0527   -1.2544 C   0  0  0  0  0  0  0  0  0  0  0  0
  -10.1694   -6.9091   -0.2264 O   0  0  0  0  0  0  0  0  0  0  0  0
  -10.4160   -6.4324    1.0947 C   0  0  0  0  0  0  0  0  0  0  0  0
 30 34  1  0
 30 35  1  0
 42 27  1  0
 42 43  1  0
 36 38  2  0
 31 32  1  0
 31 33  1  0
 31 24  1  0
 37 25  1  0
 37 38  1  0
 37 39  1  0
  1 29  1  0
  1  5  1  0
  1  2  1  0
  9 10  1  0
  9 13  1  0
  9  6  1  0
 21 20  1  0
 21 22  1  0
 21 23  1  0
 10 12  2  0
  3  5  2  0
  3  6  1  0
  4  5  1  0
  4  8  2  0
 32 34  1  0
 33 35  1  0
 24 25  2  0
 24 26  1  0
 25 28  1  0
 26 27  2  0
 27 29  1  0
 28 29  2  0
 11 20  1  0
 11 12  1  0
 11 13  2  0
 12 14  1  0
  6  7  2  0
 14 15  2  0
 14 16  1  0
 38 40  1  0
  7  8  1  0
 15 17  1  0
 16 18  2  0
 40 41  2  0
 17 19  2  0
 18 19  1  0
M  END
> <PUBCHEM_COMPOUND_CID>
121269225

> <PUBCHEM_CONFORMER_RMSD>
1.2

> <PUBCHEM_CONFORMER_DIVERSEORDER>
1
31
30
33
22
2
39
40
42
24
12
19
13
34
32
21
11
18
5
17
38
16
37
14
6
10
23
41
20
8
26
9
35
27
3
25
7
29
36
15
28
4

> <PUBCHEM_MMFF94_PARTIAL_CHARGES>
56
1 -0.56
10 -0.62
11 -0.62
12 0.37
13 0.37
14 0.1
15 0.28
16 0.28
17 0.12
18 -0.15
19 0.08
2 -0.36
20 -0.15
21 0.1
22 -0.18
23 0.45
24 0.23
25 -0.3
26 0.72
27 0.29
28 0.05
29 0.62
3 -0.57
30 0.27
31 0.27
32 -0.15
33 0.28
34 -0.15
35 -0.15
36 0.16
37 -0.14
38 -0.15
39 -0.15
4 -0.84
40 -0.15
41 -0.3
5 -0.55
50 0.15
51 0.15
52 0.37
53 0.4
56 0.15
6 -0.6
63 0.15
67 0.15
68 0.15
69 0.15
7 0.59
70 0.15
71 0.15
72 0.15
73 0.15
74 0.15
75 0.15
8 -0.81
9 -0.71

> <PUBCHEM_EFFECTIVE_ROTOR_COUNT>
12.2

> <PUBCHEM_PHARMACOPHORE_FEATURES>
15
1 1 acceptor
1 2 acceptor
1 3 acceptor
1 4 cation
1 41 hydrophobe
1 5 donor
1 6 donor
1 8 cation
1 9 acceptor
4 6 10 11 26 cation
5 7 9 22 24 25 rings
6 1 4 12 13 15 16 rings
6 10 11 26 27 32 36 rings
6 14 17 18 19 20 21 rings
6 28 34 35 38 39 40 rings

> <PUBCHEM_HEAVY_ATOM_COUNT>
41

> <PUBCHEM_ATOM_DEF_STEREO_COUNT>
0

> <PUBCHEM_ATOM_UDEF_STEREO_COUNT>
0

> <PUBCHEM_BOND_DEF_STEREO_COUNT>
0

> <PUBCHEM_BOND_UDEF_STEREO_COUNT>
0

> <PUBCHEM_ISOTOPIC_ATOM_COUNT>
0

> <PUBCHEM_COMPONENT_COUNT>
1

> <PUBCHEM_CACTVS_TAUTO_COUNT>
21

> <PUBCHEM_CONFORMER_ID>
073A6BE900000001

> <PUBCHEM_MMFF94_ENERGY>
152.827

> <PUBCHEM_FEATURE_SELFOVERLAP>
76.123

> <PUBCHEM_SHAPE_FINGERPRINT>
10462674 296 18055900229362274326
117089 54 18263092144354338331
11963148 33 18115585942575997050
12107698 1 18337393841724322403
12559416 138 18339348712874340727
13560911 23 18408602557088241267
14279260 333 18187357693993441490
14394314 77 18337110056029612200
15001296 14 18265896865773273624
15021287 119 18341047531706515807
15064986 96 18059864904782135415
15444296 121 18408895039955283246
16110190 28 18341895182268168492
19311894 1 18339911736691467118
19319366 153 17760935438911142901
19611394 137 18261683687065550115
19841028 212 18117559742109845515
208703 8 18336543905992583145
21033648 29 17631719491893857602
25019877 29 17275108357344291455
25222932 49 18408041814642871966
3383291 50 18337952393284008379
4461854 278 18130515235522043406
44880168 125 17560794378212456590
9896288 288 18270402668086312625

> <PUBCHEM_SHAPE_MULTIPOLES>
786.3
19.57
6.26
1.77
11.23
3.91
0.4
-14.21
5.68
-4.91
-0.06
-0.46
-1.67
-2

> <PUBCHEM_SHAPE_SELFOVERLAP>
1697.64

> <PUBCHEM_SHAPE_VOLUME>
430.8

> <PUBCHEM_COORDINATE_TYPE>
2
5
10

> <minimizedAffinity>
-6.71958

> <CNNscore>
0.1201350987

> <CNNaffinity>
5.7730431557

> <CNN_VS>
0.6935451031

> <CNNaffinity_variance>
0.6376538277

$$$$
121269225


 43 47  0  0  0  0  0  0  0  0999 V2000
   10.8464    5.5541  -11.3154 N   0  0  0  0  0  0  0  0  0  0  0  0
   10.3642    4.9926  -10.6200 H   0  0  0  0  0  0  0  0  0  0  0  0
   10.7428    7.5038  -10.0217 N   0  0  0  0  0  0  0  0  0  0  0  0
   10.0669    7.5139  -12.3349 N   0  0  0  0  0  0  0  0  0  0  0  0
   10.5372    6.9236  -11.2195 C   0  0  0  0  0  0  0  0  0  0  0  0
   10.4356    8.8164   -9.9649 C   0  0  0  0  0  0  0  0  0  0  0  0
    9.9466    9.5365  -11.0358 C   0  0  0  0  0  0  0  0  0  0  0  0
    9.7807    8.8261  -12.2072 C   0  0  0  0  0  0  0  0  0  0  0  0
   10.6242    9.4762   -8.7604 N   0  0  0  0  0  0  0  0  0  0  0  0
   10.7551    8.7827   -7.6167 N   0  0  0  0  0  0  0  0  0  0  0  0
   10.8863   11.0338   -7.2518 C   0  0  0  0  0  0  0  0  0  0  0  0
   10.9149    9.7397   -6.6985 C   0  0  0  0  0  0  0  0  0  0  0  0
   10.6954   10.8284   -8.5964 C   0  0  0  0  0  0  0  0  0  0  0  0
   11.0914    9.3905   -5.3123 C   0  0  0  0  0  0  0  0  0  0  0  0
   12.3758    9.2794   -4.7799 C   0  0  0  0  0  0  0  0  0  0  0  0
    9.9789    9.1629   -4.5025 C   0  0  0  0  0  0  0  0  0  0  0  0
   12.5477    8.9408   -3.4376 C   0  0  0  0  0  0  0  0  0  0  0  0
   10.1504    8.8243   -3.1604 C   0  0  0  0  0  0  0  0  0  0  0  0
   11.4350    8.7133   -2.6279 C   0  0  0  0  0  0  0  0  0  0  0  0
   11.0266   12.3287   -6.5629 C   0  0  0  0  0  0  0  0  0  0  0  0
    9.7709   12.7969   -5.9567 N   0  0  0  0  0  0  0  0  0  0  0  0
    9.4068   14.1020   -6.4992 C   0  0  0  0  0  0  0  0  0  0  0  0
    9.9061   12.8589   -4.5048 C   0  0  0  0  0  0  0  0  0  0  0  0
   13.6997    3.4344  -13.5562 C   0  0  0  0  0  0  0  0  0  0  0  0
   14.0596    4.0334  -12.3490 C   0  0  0  0  0  0  0  0  0  0  0  0
   12.3893    3.5386  -14.0230 C   0  0  0  0  0  0  0  0  0  0  0  0
   11.4390    4.2418  -13.2825 C   0  0  0  0  0  0  0  0  0  0  0  0
   13.1093    4.7366  -11.6086 C   0  0  0  0  0  0  0  0  0  0  0  0
   11.7992    4.8407  -12.0753 C   0  0  0  0  0  0  0  0  0  0  0  0
   16.3108    1.1137  -15.8960 O   0  0  0  0  0  0  0  0  0  0  0  0
   14.6356    2.7227  -14.3138 N   0  0  0  0  0  0  0  0  0  0  0  0
   14.4446    2.6577  -15.7693 C   0  0  0  0  0  0  0  0  0  0  0  0
   15.3344    1.5757  -13.7237 C   0  0  0  0  0  0  0  0  0  0  0  0
   15.7658    2.3124  -16.4469 C   0  0  0  0  0  0  0  0  0  0  0  0
   16.6079    1.2874  -14.5109 C   0  0  0  0  0  0  0  0  0  0  0  0
   15.1622    2.4907  -10.0204 O   0  0  0  0  0  0  0  0  0  0  0  0
   15.3666    3.9415  -11.8615 N   0  0  0  0  0  0  0  0  0  0  0  0
   15.8262    3.2021  -10.7651 C   0  0  0  0  0  0  0  0  0  0  0  0
   16.0525    4.4841  -12.3827 H   0  0  0  0  0  0  0  0  0  0  0  0
   17.2957    3.3681  -10.5692 C   0  0  0  0  0  0  0  0  0  0  0  0
   17.7940    4.5171  -10.1021 C   0  0  0  0  0  0  0  0  0  0  0  0
   10.1637    4.3312  -13.7551 O   0  0  0  0  0  0  0  0  0  0  0  0
    9.8838    3.6756  -14.9901 C   0  0  0  0  0  0  0  0  0  0  0  0
 30 34  1  0
 30 35  1  0
 42 27  1  0
 42 43  1  0
 36 38  2  0
 31 32  1  0
 31 33  1  0
 31 24  1  0
 37 25  1  0
 37 38  1  0
 37 39  1  0
  1 29  1  0
  1  5  1  0
  1  2  1  0
  9 10  1  0
  9 13  1  0
  9  6  1  0
 21 20  1  0
 21 22  1  0
 21 23  1  0
 10 12  2  0
  3  5  2  0
  3  6  1  0
  4  5  1  0
  4  8  2  0
 32 34  1  0
 33 35  1  0
 24 25  2  0
 24 26  1  0
 25 28  1  0
 26 27  2  0
 27 29  1  0
 28 29  2  0
 11 20  1  0
 11 12  1  0
 11 13  2  0
 12 14  1  0
  6  7  2  0
 14 15  2  0
 14 16  1  0
 38 40  1  0
  7  8  1  0
 15 17  1  0
 16 18  2  0
 40 41  2  0
 17 19  2  0
 18 19  1  0
M  END
> <PUBCHEM_COMPOUND_CID>
121269225

> <PUBCHEM_CONFORMER_RMSD>
1.2

> <PUBCHEM_CONFORMER_DIVERSEORDER>
1
31
30
33
22
2
39
40
42
24
12
19
13
34
32
21
11
18
5
17
38
16
37
14
6
10
23
41
20
8
26
9
35
27
3
25
7
29
36
15
28
4

> <PUBCHEM_MMFF94_PARTIAL_CHARGES>
56
1 -0.56
10 -0.62
11 -0.62
12 0.37
13 0.37
14 0.1
15 0.28
16 0.28
17 0.12
18 -0.15
19 0.08
2 -0.36
20 -0.15
21 0.1
22 -0.18
23 0.45
24 0.23
25 -0.3
26 0.72
27 0.29
28 0.05
29 0.62
3 -0.57
30 0.27
31 0.27
32 -0.15
33 0.28
34 -0.15
35 -0.15
36 0.16
37 -0.14
38 -0.15
39 -0.15
4 -0.84
40 -0.15
41 -0.3
5 -0.55
50 0.15
51 0.15
52 0.37
53 0.4
56 0.15
6 -0.6
63 0.15
67 0.15
68 0.15
69 0.15
7 0.59
70 0.15
71 0.15
72 0.15
73 0.15
74 0.15
75 0.15
8 -0.81
9 -0.71

> <PUBCHEM_EFFECTIVE_ROTOR_COUNT>
12.2

> <PUBCHEM_PHARMACOPHORE_FEATURES>
15
1 1 acceptor
1 2 acceptor
1 3 acceptor
1 4 cation
1 41 hydrophobe
1 5 donor
1 6 donor
1 8 cation
1 9 acceptor
4 6 10 11 26 cation
5 7 9 22 24 25 rings
6 1 4 12 13 15 16 rings
6 10 11 26 27 32 36 rings
6 14 17 18 19 20 21 rings
6 28 34 35 38 39 40 rings

> <PUBCHEM_HEAVY_ATOM_COUNT>
41

> <PUBCHEM_ATOM_DEF_STEREO_COUNT>
0

> <PUBCHEM_ATOM_UDEF_STEREO_COUNT>
0

> <PUBCHEM_BOND_DEF_STEREO_COUNT>
0

> <PUBCHEM_BOND_UDEF_STEREO_COUNT>
0

> <PUBCHEM_ISOTOPIC_ATOM_COUNT>
0

> <PUBCHEM_COMPONENT_COUNT>
1

> <PUBCHEM_CACTVS_TAUTO_COUNT>
21

> <PUBCHEM_CONFORMER_ID>
073A6BE900000001

> <PUBCHEM_MMFF94_ENERGY>
152.827

> <PUBCHEM_FEATURE_SELFOVERLAP>
76.123

> <PUBCHEM_SHAPE_FINGERPRINT>
10462674 296 18055900229362274326
117089 54 18263092144354338331
11963148 33 18115585942575997050
12107698 1 18337393841724322403
12559416 138 18339348712874340727
13560911 23 18408602557088241267
14279260 333 18187357693993441490
14394314 77 18337110056029612200
15001296 14 18265896865773273624
15021287 119 18341047531706515807
15064986 96 18059864904782135415
15444296 121 18408895039955283246
16110190 28 18341895182268168492
19311894 1 18339911736691467118
19319366 153 17760935438911142901
19611394 137 18261683687065550115
19841028 212 18117559742109845515
208703 8 18336543905992583145
21033648 29 17631719491893857602
25019877 29 17275108357344291455
25222932 49 18408041814642871966
3383291 50 18337952393284008379
4461854 278 18130515235522043406
44880168 125 17560794378212456590
9896288 288 18270402668086312625

> <PUBCHEM_SHAPE_MULTIPOLES>
786.3
19.57
6.26
1.77
11.23
3.91
0.4
-14.21
5.68
-4.91
-0.06
-0.46
-1.67
-2

> <PUBCHEM_SHAPE_SELFOVERLAP>
1697.64

> <PUBCHEM_SHAPE_VOLUME>
430.8

> <PUBCHEM_COORDINATE_TYPE>
2
5
10

> <minimizedAffinity>
-6.69007

> <CNNscore>
0.1151749641

> <CNNaffinity>
4.8400998116

> <CNN_VS>
0.5574583411

> <CNNaffinity_variance>
0.9727928042

$$$$
