71496458


 39 42  0  0  0  0  0  0  0  0999 V2000
    5.1327   -1.0356  -10.0368 C   0  0  0  0  0  0  0  0  0  0  0  0
    4.8412   -1.9412   -9.7289 C   0  0  0  0  0  0  0  0  0  0  0  0
    4.4678   -0.4061  -10.4387 C   0  0  0  0  0  0  0  0  0  0  0  0
    3.2197   -1.5878  -10.2246 C   0  0  0  0  0  0  0  0  0  0  0  0
    3.5112   -0.6821  -10.5326 C   0  0  0  0  0  0  0  0  0  0  0  0
    3.8847   -2.2173   -9.8227 C   0  0  0  0  0  0  0  0  0  0  0  0
    4.7407   -3.8965  -10.1372 O   0  0  0  0  0  0  0  0  0  0  0  0
    5.5062   -2.5706   -9.3270 N   0  0  0  0  0  0  0  0  0  0  0  0
    5.4559   -3.5484   -9.5312 C   0  0  0  0  0  0  0  0  0  0  0  0
    5.9497   -2.3549   -8.9513 H   0  0  0  0  0  0  0  0  0  0  0  0
    6.1210   -4.1779   -9.1293 C   0  0  0  0  0  0  0  0  0  0  0  0
    5.8067   -4.9814   -8.6239 C   0  0  0  0  0  0  0  0  0  0  0  0
    2.8463   -0.0526  -10.9345 O   0  0  0  0  0  0  0  0  0  0  0  0
    3.1203    0.8792  -11.1723 C   0  0  0  0  0  0  0  0  0  0  0  0
    6.0893   -0.7595   -9.9429 N   0  0  0  0  0  0  0  0  0  0  0  0
    6.5377   -0.8056   -9.0503 C   0  0  0  0  0  0  0  0  0  0  0  0
    6.5974   -0.4372  -10.7417 C   0  0  0  0  0  0  0  0  0  0  0  0
    7.5816   -0.6016  -10.8079 C   0  0  0  0  0  0  0  0  0  0  0  0
    8.1493   -0.0124  -11.3829 N   0  0  0  0  0  0  0  0  0  0  0  0
    7.7203    0.6201  -12.0278 C   0  0  0  0  0  0  0  0  0  0  0  0
    9.1459   -0.0556  -11.3129 C   0  0  0  0  0  0  0  0  0  0  0  0
    2.2632   -1.8639  -10.3185 N   0  0  0  0  0  0  0  0  0  0  0  0
    2.0126   -1.9268  -10.8822 H   0  0  0  0  0  0  0  0  0  0  0  0
    1.9911   -2.7422   -8.8507 N   0  0  0  0  0  0  0  0  0  0  0  0
    0.8778   -1.5093   -9.3413 N   0  0  0  0  0  0  0  0  0  0  0  0
    1.4385   -2.9168   -8.0357 C   0  0  0  0  0  0  0  0  0  0  0  0
    1.7107   -2.0385   -9.5035 C   0  0  0  0  0  0  0  0  0  0  0  0
    0.6057   -2.3876   -7.8735 C   0  0  0  0  0  0  0  0  0  0  0  0
    0.3254   -1.6839   -8.5263 C   0  0  0  0  0  0  0  0  0  0  0  0
    2.5300   -4.4097   -6.2384 N   0  0  0  0  0  0  0  0  0  0  0  0
    1.2675   -4.4940   -7.2367 C   0  0  0  0  0  0  0  0  0  0  0  0
    1.7714   -4.9843   -6.5257 C   0  0  0  0  0  0  0  0  0  0  0  0
    1.7189   -3.6205   -7.3829 C   0  0  0  0  0  0  0  0  0  0  0  0
    2.4976   -3.5685   -6.7672 C   0  0  0  0  0  0  0  0  0  0  0  0
    0.4617   -4.9116   -7.6568 C   0  0  0  0  0  0  0  0  0  0  0  0
    1.4696   -5.8923   -6.2347 C   0  0  0  0  0  0  0  0  0  0  0  0
    3.2076   -4.6380   -5.5394 C   0  0  0  0  0  0  0  0  0  0  0  0
    0.1600   -5.8195   -7.3658 C   0  0  0  0  0  0  0  0  0  0  0  0
    0.6639   -6.3098   -6.6547 C   0  0  0  0  0  0  0  0  0  0  0  0
 13  5  1  0
 13 14  1  0
  7  9  2  0
 15 17  1  0
 15  1  1  0
 15 16  1  0
 30 32  1  0
 30 34  1  0
 30 37  1  0
 19 18  1  0
 19 20  1  0
 19 21  1  0
 22  4  1  0
 22 27  1  0
 22 23  1  0
  8  2  1  0
  8  9  1  0
  8 10  1  0
 24 26  2  0
 24 27  1  0
 25 27  2  0
 25 29  1  0
 17 18  1  0
  1  2  2  0
  1  3  1  0
 31 32  2  0
 31 33  1  0
 31 35  1  0
 32 36  1  0
 33 34  2  0
 33 26  1  0
  2  6  1  0
  3  5  2  0
  4  5  1  0
  4  6  2  0
 26 28  1  0
 35 38  2  0
 36 39  2  0
 38 39  1  0
 28 29  2  0
  9 11  1  0
 11 12  2  0
M  END
> <PUBCHEM_COMPOUND_CID>
71496458

> <PUBCHEM_COMPOUND_CANONICALIZED>
1

> <PUBCHEM_CACTVS_COMPLEXITY>
752

> <PUBCHEM_CACTVS_HBOND_ACCEPTOR>
7

> <PUBCHEM_CACTVS_HBOND_DONOR>
2

> <PUBCHEM_CACTVS_ROTATABLE_BOND>
10

> <PUBCHEM_CACTVS_SUBSKEYS>
AAADcfB7sAAAAAAAAAAAAAAAAAAAAWAAAAA8YIAAAAAAAFgB/AAAHgAQAAAADAzBngY/1vfMFACoAzV3dACCiCkxIqAJ2CA/fNiObuLE+duVNChu1BvY6Kew0MMOgECAAgQCECAAgQAECAQgQAAAAAAAAA==

> <PUBCHEM_IUPAC_OPENEYE_NAME>
N-[2-[2-(dimethylamino)ethyl-methyl-amino]-4-methoxy-5-[[4-(1-methylindol-3-yl)pyrimidin-2-yl]amino]phenyl]prop-2-enamide

> <PUBCHEM_IUPAC_CAS_NAME>
N-[2-[2-(dimethylamino)ethyl-methylamino]-4-methoxy-5-[[4-(1-methyl-3-indolyl)-2-pyrimidinyl]amino]phenyl]-2-propenamide

> <PUBCHEM_IUPAC_NAME_MARKUP>
<I>N</I>-[2-[2-(dimethylamino)ethyl-methylamino]-4-methoxy-5-[[4-(1-methylindol-3-yl)pyrimidin-2-yl]amino]phenyl]prop-2-enamide

> <PUBCHEM_IUPAC_NAME>
N-[2-[2-(dimethylamino)ethyl-methylamino]-4-methoxy-5-[[4-(1-methylindol-3-yl)pyrimidin-2-yl]amino]phenyl]prop-2-enamide

> <PUBCHEM_IUPAC_SYSTEMATIC_NAME>
N-[2-[2-(dimethylamino)ethyl-methyl-amino]-4-methoxy-5-[[4-(1-methylindol-3-yl)pyrimidin-2-yl]amino]phenyl]prop-2-enamide

> <PUBCHEM_IUPAC_TRADITIONAL_NAME>
N-[2-[2-(dimethylamino)ethyl-methyl-amino]-4-methoxy-5-[[4-(1-methylindol-3-yl)pyrimidin-2-yl]amino]phenyl]acrylamide

> <PUBCHEM_IUPAC_INCHI>
InChI=1S/C28H33N7O2/c1-7-27(36)30-22-16-23(26(37-6)17-25(22)34(4)15-14-33(2)3)32-28-29-13-12-21(31-28)20-18-35(5)24-11-9-8-10-19(20)24/h7-13,16-18H,1,14-15H2,2-6H3,(H,30,36)(H,29,31,32)

> <PUBCHEM_IUPAC_INCHIKEY>
DUYJMQONPNNFPI-UHFFFAOYSA-N

> <PUBCHEM_XLOGP3_AA>
3.7

> <PUBCHEM_EXACT_MASS>
499.26957332

> <PUBCHEM_MOLECULAR_FORMULA>
C28H33N7O2

> <PUBCHEM_MOLECULAR_WEIGHT>
499.6

> <PUBCHEM_REFERENCE_STANDARDIZATION>
Bypass - this structure was created from CID 78357807

> <PUBCHEM_SMILES>
CN1C=C(C2=CC=CC=C21)C3=NC(=NC=C3)NC4=C(C=C(C(=C4)NC(=O)C=C)N(C)CCN(C)C)OC

> <PUBCHEM_OPENEYE_CAN_SMILES>
CN1C=C(C2=CC=CC=C21)C3=NC(=NC=C3)NC4=C(C=C(C(=C4)NC(=O)C=C)N(C)CCN(C)C)OC

> <PUBCHEM_OPENEYE_ISO_SMILES>
CN1C=C(C2=CC=CC=C21)C3=NC(=NC=C3)NC4=C(C=C(C(=C4)NC(=O)C=C)N(C)CCN(C)C)OC

> <PUBCHEM_CACTVS_TPSA>
87.6

> <PUBCHEM_MONOISOTOPIC_WEIGHT>
499.26957332

> <PUBCHEM_TOTAL_CHARGE>
0

> <PUBCHEM_HEAVY_ATOM_COUNT>
37

> <PUBCHEM_ATOM_DEF_STEREO_COUNT>
0

> <PUBCHEM_ATOM_UDEF_STEREO_COUNT>
0

> <PUBCHEM_BOND_DEF_STEREO_COUNT>
0

> <PUBCHEM_BOND_UDEF_STEREO_COUNT>
0

> <PUBCHEM_ISOTOPIC_ATOM_COUNT>
0

> <PUBCHEM_COMPONENT_COUNT>
1

> <PUBCHEM_CACTVS_TAUTO_COUNT>
-1

> <PUBCHEM_COORDINATE_TYPE>
1
5
255

> <PUBCHEM_BONDANNOTATIONS>
11  16  8
11  17  8
13  14  8
13  15  8
13  24  8
14  25  8
15  18  8
16  22  8
17  21  8
19  21  8
19  22  8
23  32  8
24  30  8
25  31  8
30  31  8
32  33  8
4  14  8
4  18  8
8  23  8
8  29  8
9  29  8
9  33  8

> <minimizedAffinity>
-9.36089

> <CNNscore>
0.0130596813

> <CNNaffinity>
4.6461052895

> <CNN_VS>
0.0606766529

> <CNNaffinity_variance>
3.5206260681

$$$$
71496458


 39 42  0  0  0  0  0  0  0  0999 V2000
    3.1296   -2.9790   -7.5143 C   0  0  0  0  0  0  0  0  0  0  0  0
    4.0692   -2.7345   -7.7536 C   0  0  0  0  0  0  0  0  0  0  0  0
    2.3890   -2.8159   -8.1662 C   0  0  0  0  0  0  0  0  0  0  0  0
    3.5278   -2.1638   -9.2966 C   0  0  0  0  0  0  0  0  0  0  0  0
    2.5881   -2.4082   -9.0574 C   0  0  0  0  0  0  0  0  0  0  0  0
    4.2684   -2.3269   -8.6447 C   0  0  0  0  0  0  0  0  0  0  0  0
    5.7412   -3.6561   -8.3496 O   0  0  0  0  0  0  0  0  0  0  0  0
    4.8097   -2.8976   -7.1016 N   0  0  0  0  0  0  0  0  0  0  0  0
    5.6458   -3.3585   -7.3997 C   0  0  0  0  0  0  0  0  0  0  0  0
    4.7506   -2.7131   -6.5127 H   0  0  0  0  0  0  0  0  0  0  0  0
    6.3863   -3.5217   -6.7477 C   0  0  0  0  0  0  0  0  0  0  0  0
    7.2893   -3.1226   -6.9067 C   0  0  0  0  0  0  0  0  0  0  0  0
    1.8476   -2.2451   -9.7093 O   0  0  0  0  0  0  0  0  0  0  0  0
    0.9428   -2.6387   -9.5469 C   0  0  0  0  0  0  0  0  0  0  0  0
    2.9305   -3.3866   -6.6231 N   0  0  0  0  0  0  0  0  0  0  0  0
    2.8371   -2.8034   -5.8161 C   0  0  0  0  0  0  0  0  0  0  0  0
    2.8247   -4.3775   -6.5389 C   0  0  0  0  0  0  0  0  0  0  0  0
    2.3251   -4.7628   -5.7631 C   0  0  0  0  0  0  0  0  0  0  0  0
    2.1664   -5.7488   -5.7105 N   0  0  0  0  0  0  0  0  0  0  0  0
    2.7447   -6.3178   -5.1259 C   0  0  0  0  0  0  0  0  0  0  0  0
    1.4295   -6.1657   -6.2426 C   0  0  0  0  0  0  0  0  0  0  0  0
    3.7269   -1.7561  -10.1878 N   0  0  0  0  0  0  0  0  0  0  0  0
    3.5609   -2.0508  -10.7075 H   0  0  0  0  0  0  0  0  0  0  0  0
    5.1190   -0.8187  -10.6161 N   0  0  0  0  0  0  0  0  0  0  0  0
    3.7350   -0.0452   -9.9188 N   0  0  0  0  0  0  0  0  0  0  0  0
    5.5857    0.0642  -10.6692 C   0  0  0  0  0  0  0  0  0  0  0  0
    4.1937   -0.8733  -10.2409 C   0  0  0  0  0  0  0  0  0  0  0  0
    5.1271    0.8923  -10.3471 C   0  0  0  0  0  0  0  0  0  0  0  0
    4.2017    0.8376   -9.9719 C   0  0  0  0  0  0  0  0  0  0  0  0
    7.7957    0.6059  -11.8827 N   0  0  0  0  0  0  0  0  0  0  0  0
    7.2618   -0.4992  -10.8380 C   0  0  0  0  0  0  0  0  0  0  0  0
    8.0600   -0.1966  -11.3589 C   0  0  0  0  0  0  0  0  0  0  0  0
    6.5110    0.1187  -11.0444 C   0  0  0  0  0  0  0  0  0  0  0  0
    6.8403    0.8004  -11.6887 C   0  0  0  0  0  0  0  0  0  0  0  0
    7.3272   -1.3007  -10.2434 C   0  0  0  0  0  0  0  0  0  0  0  0
    8.9236   -0.6953  -11.2851 C   0  0  0  0  0  0  0  0  0  0  0  0
    8.3878    1.1268  -12.4976 C   0  0  0  0  0  0  0  0  0  0  0  0
    8.1909   -1.7993  -10.1697 C   0  0  0  0  0  0  0  0  0  0  0  0
    8.9891   -1.4966  -10.6905 C   0  0  0  0  0  0  0  0  0  0  0  0
 13  5  1  0
 13 14  1  0
  7  9  2  0
 15 17  1  0
 15  1  1  0
 15 16  1  0
 30 32  1  0
 30 34  1  0
 30 37  1  0
 19 18  1  0
 19 20  1  0
 19 21  1  0
 22  4  1  0
 22 27  1  0
 22 23  1  0
  8  2  1  0
  8  9  1  0
  8 10  1  0
 24 26  2  0
 24 27  1  0
 25 27  2  0
 25 29  1  0
 17 18  1  0
  1  2  2  0
  1  3  1  0
 31 32  2  0
 31 33  1  0
 31 35  1  0
 32 36  1  0
 33 34  2  0
 33 26  1  0
  2  6  1  0
  3  5  2  0
  4  5  1  0
  4  6  2  0
 26 28  1  0
 35 38  2  0
 36 39  2  0
 38 39  1  0
 28 29  2  0
  9 11  1  0
 11 12  2  0
M  END
> <PUBCHEM_COMPOUND_CID>
71496458

> <PUBCHEM_COMPOUND_CANONICALIZED>
1

> <PUBCHEM_CACTVS_COMPLEXITY>
752

> <PUBCHEM_CACTVS_HBOND_ACCEPTOR>
7

> <PUBCHEM_CACTVS_HBOND_DONOR>
2

> <PUBCHEM_CACTVS_ROTATABLE_BOND>
10

> <PUBCHEM_CACTVS_SUBSKEYS>
AAADcfB7sAAAAAAAAAAAAAAAAAAAAWAAAAA8YIAAAAAAAFgB/AAAHgAQAAAADAzBngY/1vfMFACoAzV3dACCiCkxIqAJ2CA/fNiObuLE+duVNChu1BvY6Kew0MMOgECAAgQCECAAgQAECAQgQAAAAAAAAA==

> <PUBCHEM_IUPAC_OPENEYE_NAME>
N-[2-[2-(dimethylamino)ethyl-methyl-amino]-4-methoxy-5-[[4-(1-methylindol-3-yl)pyrimidin-2-yl]amino]phenyl]prop-2-enamide

> <PUBCHEM_IUPAC_CAS_NAME>
N-[2-[2-(dimethylamino)ethyl-methylamino]-4-methoxy-5-[[4-(1-methyl-3-indolyl)-2-pyrimidinyl]amino]phenyl]-2-propenamide

> <PUBCHEM_IUPAC_NAME_MARKUP>
<I>N</I>-[2-[2-(dimethylamino)ethyl-methylamino]-4-methoxy-5-[[4-(1-methylindol-3-yl)pyrimidin-2-yl]amino]phenyl]prop-2-enamide

> <PUBCHEM_IUPAC_NAME>
N-[2-[2-(dimethylamino)ethyl-methylamino]-4-methoxy-5-[[4-(1-methylindol-3-yl)pyrimidin-2-yl]amino]phenyl]prop-2-enamide

> <PUBCHEM_IUPAC_SYSTEMATIC_NAME>
N-[2-[2-(dimethylamino)ethyl-methyl-amino]-4-methoxy-5-[[4-(1-methylindol-3-yl)pyrimidin-2-yl]amino]phenyl]prop-2-enamide

> <PUBCHEM_IUPAC_TRADITIONAL_NAME>
N-[2-[2-(dimethylamino)ethyl-methyl-amino]-4-methoxy-5-[[4-(1-methylindol-3-yl)pyrimidin-2-yl]amino]phenyl]acrylamide

> <PUBCHEM_IUPAC_INCHI>
InChI=1S/C28H33N7O2/c1-7-27(36)30-22-16-23(26(37-6)17-25(22)34(4)15-14-33(2)3)32-28-29-13-12-21(31-28)20-18-35(5)24-11-9-8-10-19(20)24/h7-13,16-18H,1,14-15H2,2-6H3,(H,30,36)(H,29,31,32)

> <PUBCHEM_IUPAC_INCHIKEY>
DUYJMQONPNNFPI-UHFFFAOYSA-N

> <PUBCHEM_XLOGP3_AA>
3.7

> <PUBCHEM_EXACT_MASS>
499.26957332

> <PUBCHEM_MOLECULAR_FORMULA>
C28H33N7O2

> <PUBCHEM_MOLECULAR_WEIGHT>
499.6

> <PUBCHEM_REFERENCE_STANDARDIZATION>
Bypass - this structure was created from CID 78357807

> <PUBCHEM_SMILES>
CN1C=C(C2=CC=CC=C21)C3=NC(=NC=C3)NC4=C(C=C(C(=C4)NC(=O)C=C)N(C)CCN(C)C)OC

> <PUBCHEM_OPENEYE_CAN_SMILES>
CN1C=C(C2=CC=CC=C21)C3=NC(=NC=C3)NC4=C(C=C(C(=C4)NC(=O)C=C)N(C)CCN(C)C)OC

> <PUBCHEM_OPENEYE_ISO_SMILES>
CN1C=C(C2=CC=CC=C21)C3=NC(=NC=C3)NC4=C(C=C(C(=C4)NC(=O)C=C)N(C)CCN(C)C)OC

> <PUBCHEM_CACTVS_TPSA>
87.6

> <PUBCHEM_MONOISOTOPIC_WEIGHT>
499.26957332

> <PUBCHEM_TOTAL_CHARGE>
0

> <PUBCHEM_HEAVY_ATOM_COUNT>
37

> <PUBCHEM_ATOM_DEF_STEREO_COUNT>
0

> <PUBCHEM_ATOM_UDEF_STEREO_COUNT>
0

> <PUBCHEM_BOND_DEF_STEREO_COUNT>
0

> <PUBCHEM_BOND_UDEF_STEREO_COUNT>
0

> <PUBCHEM_ISOTOPIC_ATOM_COUNT>
0

> <PUBCHEM_COMPONENT_COUNT>
1

> <PUBCHEM_CACTVS_TAUTO_COUNT>
-1

> <PUBCHEM_COORDINATE_TYPE>
1
5
255

> <PUBCHEM_BONDANNOTATIONS>
11  16  8
11  17  8
13  14  8
13  15  8
13  24  8
14  25  8
15  18  8
16  22  8
17  21  8
19  21  8
19  22  8
23  32  8
24  30  8
25  31  8
30  31  8
32  33  8
4  14  8
4  18  8
8  23  8
8  29  8
9  29  8
9  33  8

> <minimizedAffinity>
-8.91762

> <CNNscore>
0.0118367337

> <CNNaffinity>
5.0518684387

> <CNN_VS>
0.0597976223

> <CNNaffinity_variance>
2.5329780579

$$$$
71496458


 39 42  0  0  0  0  0  0  0  0999 V2000
    2.4175   -2.9233   -9.2152 C   0  0  0  0  0  0  0  0  0  0  0  0
    3.0099   -2.3226   -9.7519 C   0  0  0  0  0  0  0  0  0  0  0  0
    2.8032   -3.7200   -8.7498 C   0  0  0  0  0  0  0  0  0  0  0  0
    4.3735   -3.3151   -9.3580 C   0  0  0  0  0  0  0  0  0  0  0  0
    3.7812   -3.9159   -8.8212 C   0  0  0  0  0  0  0  0  0  0  0  0
    3.9879   -2.5184   -9.8234 C   0  0  0  0  0  0  0  0  0  0  0  0
    3.8874   -0.5349   -9.5675 O   0  0  0  0  0  0  0  0  0  0  0  0
    2.6241   -1.5259  -10.2173 N   0  0  0  0  0  0  0  0  0  0  0  0
    3.0629   -0.6320  -10.1250 C   0  0  0  0  0  0  0  0  0  0  0  0
    2.1130   -1.5861  -10.5630 H   0  0  0  0  0  0  0  0  0  0  0  0
    2.6772    0.1647  -10.5904 C   0  0  0  0  0  0  0  0  0  0  0  0
    3.2653    0.9373  -10.8293 C   0  0  0  0  0  0  0  0  0  0  0  0
    4.1668   -4.7126   -8.3558 O   0  0  0  0  0  0  0  0  0  0  0  0
    3.5671   -5.3417   -7.8614 C   0  0  0  0  0  0  0  0  0  0  0  0
    1.4394   -2.7275   -9.1437 N   0  0  0  0  0  0  0  0  0  0  0  0
    0.8976   -2.5784   -9.9709 C   0  0  0  0  0  0  0  0  0  0  0  0
    1.0032   -2.6807   -8.2451 C   0  0  0  0  0  0  0  0  0  0  0  0
    0.0209   -2.8460   -8.1569 C   0  0  0  0  0  0  0  0  0  0  0  0
   -0.3498   -3.2126   -7.3035 N   0  0  0  0  0  0  0  0  0  0  0  0
   -1.3195   -3.4483   -7.2401 C   0  0  0  0  0  0  0  0  0  0  0  0
    0.2493   -3.3434   -6.5136 C   0  0  0  0  0  0  0  0  0  0  0  0
    5.3515   -3.5110   -9.4294 N   0  0  0  0  0  0  0  0  0  0  0  0
    5.5428   -4.0596   -9.6461 H   0  0  0  0  0  0  0  0  0  0  0  0
    6.6256   -2.4089   -9.8325 N   0  0  0  0  0  0  0  0  0  0  0  0
    6.0862   -2.5468   -8.1923 N   0  0  0  0  0  0  0  0  0  0  0  0
    7.2952   -1.7202   -9.5544 C   0  0  0  0  0  0  0  0  0  0  0  0
    6.0211   -2.8222   -9.1515 C   0  0  0  0  0  0  0  0  0  0  0  0
    7.3603   -1.4448   -8.5953 C   0  0  0  0  0  0  0  0  0  0  0  0
    6.7558   -1.8581   -7.9143 C   0  0  0  0  0  0  0  0  0  0  0  0
    9.1857   -0.9966  -11.1521 N   0  0  0  0  0  0  0  0  0  0  0  0
    7.6705   -0.5477  -10.8349 C   0  0  0  0  0  0  0  0  0  0  0  0
    8.4696   -0.3549  -11.4043 C   0  0  0  0  0  0  0  0  0  0  0  0
    7.8996   -1.3070  -10.2355 C   0  0  0  0  0  0  0  0  0  0  0  0
    8.8340   -1.5838  -10.4311 C   0  0  0  0  0  0  0  0  0  0  0  0
    6.8384   -0.0030  -10.9399 C   0  0  0  0  0  0  0  0  0  0  0  0
    8.4366    0.3827  -12.0788 C   0  0  0  0  0  0  0  0  0  0  0  0
   10.1003   -1.0432  -11.5536 C   0  0  0  0  0  0  0  0  0  0  0  0
    6.8055    0.7346  -11.6144 C   0  0  0  0  0  0  0  0  0  0  0  0
    7.6046    0.9274  -12.1838 C   0  0  0  0  0  0  0  0  0  0  0  0
 13  5  1  0
 13 14  1  0
  7  9  2  0
 15 17  1  0
 15  1  1  0
 15 16  1  0
 30 32  1  0
 30 34  1  0
 30 37  1  0
 19 18  1  0
 19 20  1  0
 19 21  1  0
 22  4  1  0
 22 27  1  0
 22 23  1  0
  8  2  1  0
  8  9  1  0
  8 10  1  0
 24 26  2  0
 24 27  1  0
 25 27  2  0
 25 29  1  0
 17 18  1  0
  1  2  2  0
  1  3  1  0
 31 32  2  0
 31 33  1  0
 31 35  1  0
 32 36  1  0
 33 34  2  0
 33 26  1  0
  2  6  1  0
  3  5  2  0
  4  5  1  0
  4  6  2  0
 26 28  1  0
 35 38  2  0
 36 39  2  0
 38 39  1  0
 28 29  2  0
  9 11  1  0
 11 12  2  0
M  END
> <PUBCHEM_COMPOUND_CID>
71496458

> <PUBCHEM_COMPOUND_CANONICALIZED>
1

> <PUBCHEM_CACTVS_COMPLEXITY>
752

> <PUBCHEM_CACTVS_HBOND_ACCEPTOR>
7

> <PUBCHEM_CACTVS_HBOND_DONOR>
2

> <PUBCHEM_CACTVS_ROTATABLE_BOND>
10

> <PUBCHEM_CACTVS_SUBSKEYS>
AAADcfB7sAAAAAAAAAAAAAAAAAAAAWAAAAA8YIAAAAAAAFgB/AAAHgAQAAAADAzBngY/1vfMFACoAzV3dACCiCkxIqAJ2CA/fNiObuLE+duVNChu1BvY6Kew0MMOgECAAgQCECAAgQAECAQgQAAAAAAAAA==

> <PUBCHEM_IUPAC_OPENEYE_NAME>
N-[2-[2-(dimethylamino)ethyl-methyl-amino]-4-methoxy-5-[[4-(1-methylindol-3-yl)pyrimidin-2-yl]amino]phenyl]prop-2-enamide

> <PUBCHEM_IUPAC_CAS_NAME>
N-[2-[2-(dimethylamino)ethyl-methylamino]-4-methoxy-5-[[4-(1-methyl-3-indolyl)-2-pyrimidinyl]amino]phenyl]-2-propenamide

> <PUBCHEM_IUPAC_NAME_MARKUP>
<I>N</I>-[2-[2-(dimethylamino)ethyl-methylamino]-4-methoxy-5-[[4-(1-methylindol-3-yl)pyrimidin-2-yl]amino]phenyl]prop-2-enamide

> <PUBCHEM_IUPAC_NAME>
N-[2-[2-(dimethylamino)ethyl-methylamino]-4-methoxy-5-[[4-(1-methylindol-3-yl)pyrimidin-2-yl]amino]phenyl]prop-2-enamide

> <PUBCHEM_IUPAC_SYSTEMATIC_NAME>
N-[2-[2-(dimethylamino)ethyl-methyl-amino]-4-methoxy-5-[[4-(1-methylindol-3-yl)pyrimidin-2-yl]amino]phenyl]prop-2-enamide

> <PUBCHEM_IUPAC_TRADITIONAL_NAME>
N-[2-[2-(dimethylamino)ethyl-methyl-amino]-4-methoxy-5-[[4-(1-methylindol-3-yl)pyrimidin-2-yl]amino]phenyl]acrylamide

> <PUBCHEM_IUPAC_INCHI>
InChI=1S/C28H33N7O2/c1-7-27(36)30-22-16-23(26(37-6)17-25(22)34(4)15-14-33(2)3)32-28-29-13-12-21(31-28)20-18-35(5)24-11-9-8-10-19(20)24/h7-13,16-18H,1,14-15H2,2-6H3,(H,30,36)(H,29,31,32)

> <PUBCHEM_IUPAC_INCHIKEY>
DUYJMQONPNNFPI-UHFFFAOYSA-N

> <PUBCHEM_XLOGP3_AA>
3.7

> <PUBCHEM_EXACT_MASS>
499.26957332

> <PUBCHEM_MOLECULAR_FORMULA>
C28H33N7O2

> <PUBCHEM_MOLECULAR_WEIGHT>
499.6

> <PUBCHEM_REFERENCE_STANDARDIZATION>
Bypass - this structure was created from CID 78357807

> <PUBCHEM_SMILES>
CN1C=C(C2=CC=CC=C21)C3=NC(=NC=C3)NC4=C(C=C(C(=C4)NC(=O)C=C)N(C)CCN(C)C)OC

> <PUBCHEM_OPENEYE_CAN_SMILES>
CN1C=C(C2=CC=CC=C21)C3=NC(=NC=C3)NC4=C(C=C(C(=C4)NC(=O)C=C)N(C)CCN(C)C)OC

> <PUBCHEM_OPENEYE_ISO_SMILES>
CN1C=C(C2=CC=CC=C21)C3=NC(=NC=C3)NC4=C(C=C(C(=C4)NC(=O)C=C)N(C)CCN(C)C)OC

> <PUBCHEM_CACTVS_TPSA>
87.6

> <PUBCHEM_MONOISOTOPIC_WEIGHT>
499.26957332

> <PUBCHEM_TOTAL_CHARGE>
0

> <PUBCHEM_HEAVY_ATOM_COUNT>
37

> <PUBCHEM_ATOM_DEF_STEREO_COUNT>
0

> <PUBCHEM_ATOM_UDEF_STEREO_COUNT>
0

> <PUBCHEM_BOND_DEF_STEREO_COUNT>
0

> <PUBCHEM_BOND_UDEF_STEREO_COUNT>
0

> <PUBCHEM_ISOTOPIC_ATOM_COUNT>
0

> <PUBCHEM_COMPONENT_COUNT>
1

> <PUBCHEM_CACTVS_TAUTO_COUNT>
-1

> <PUBCHEM_COORDINATE_TYPE>
1
5
255

> <PUBCHEM_BONDANNOTATIONS>
11  16  8
11  17  8
13  14  8
13  15  8
13  24  8
14  25  8
15  18  8
16  22  8
17  21  8
19  21  8
19  22  8
23  32  8
24  30  8
25  31  8
30  31  8
32  33  8
4  14  8
4  18  8
8  23  8
8  29  8
9  29  8
9  33  8

> <minimizedAffinity>
-8.59991

> <CNNscore>
0.0075397911

> <CNNaffinity>
4.4067230225

> <CNN_VS>
0.0332257710

> <CNNaffinity_variance>
3.3785743713

$$$$
71496458


 39 42  0  0  0  0  0  0  0  0999 V2000
    5.1692   -5.5206   -6.1900 C   0  0  0  0  0  0  0  0  0  0  0  0
    5.9868   -5.2679   -6.7074 C   0  0  0  0  0  0  0  0  0  0  0  0
    4.2801   -5.5566   -6.6462 C   0  0  0  0  0  0  0  0  0  0  0  0
    5.0262   -5.0871   -8.1372 C   0  0  0  0  0  0  0  0  0  0  0  0
    4.2085   -5.3398   -7.6198 C   0  0  0  0  0  0  0  0  0  0  0  0
    5.9153   -5.0511   -7.6809 C   0  0  0  0  0  0  0  0  0  0  0  0
    7.6274   -5.8962   -7.6632 O   0  0  0  0  0  0  0  0  0  0  0  0
    6.8759   -5.2320   -6.2510 N   0  0  0  0  0  0  0  0  0  0  0  0
    7.6962   -5.5462   -6.7290 C   0  0  0  0  0  0  0  0  0  0  0  0
    6.9186   -5.0149   -5.6718 H   0  0  0  0  0  0  0  0  0  0  0  0
    8.5853   -5.5102   -6.2727 C   0  0  0  0  0  0  0  0  0  0  0  0
    8.8256   -4.7211   -5.7075 C   0  0  0  0  0  0  0  0  0  0  0  0
    3.3194   -5.3758   -8.0761 O   0  0  0  0  0  0  0  0  0  0  0  0
    2.4814   -5.4368   -7.5339 C   0  0  0  0  0  0  0  0  0  0  0  0
    5.2407   -5.7374   -5.2163 N   0  0  0  0  0  0  0  0  0  0  0  0
    5.2082   -5.0042   -4.5371 C   0  0  0  0  0  0  0  0  0  0  0  0
    5.3448   -6.6874   -4.9219 C   0  0  0  0  0  0  0  0  0  0  0  0
    5.0852   -6.9546   -3.9939 C   0  0  0  0  0  0  0  0  0  0  0  0
    5.1449   -7.9129   -3.7143 N   0  0  0  0  0  0  0  0  0  0  0  0
    5.9510   -8.4541   -3.9535 C   0  0  0  0  0  0  0  0  0  0  0  0
    4.3986   -8.3299   -3.1956 C   0  0  0  0  0  0  0  0  0  0  0  0
    4.9546   -4.8703   -9.1107 N   0  0  0  0  0  0  0  0  0  0  0  0
    4.7959   -5.3121   -9.5158 H   0  0  0  0  0  0  0  0  0  0  0  0
    4.3804   -3.3189   -9.6240 N   0  0  0  0  0  0  0  0  0  0  0  0
    6.0823   -3.6344   -9.5586 N   0  0  0  0  0  0  0  0  0  0  0  0
    4.5649   -2.3897   -9.9443 C   0  0  0  0  0  0  0  0  0  0  0  0
    5.1391   -3.9412   -9.4311 C   0  0  0  0  0  0  0  0  0  0  0  0
    5.5081   -2.0829  -10.0718 C   0  0  0  0  0  0  0  0  0  0  0  0
    6.2667   -2.7052   -9.8790 C   0  0  0  0  0  0  0  0  0  0  0  0
    2.3205   -1.1678  -10.2901 N   0  0  0  0  0  0  0  0  0  0  0  0
    3.8867   -0.8373  -10.4782 C   0  0  0  0  0  0  0  0  0  0  0  0
    2.9636   -0.4647  -10.5733 C   0  0  0  0  0  0  0  0  0  0  0  0
    3.8063   -1.7675  -10.1371 C   0  0  0  0  0  0  0  0  0  0  0  0
    2.8403   -1.9714  -10.0211 C   0  0  0  0  0  0  0  0  0  0  0  0
    4.6794   -0.2760  -10.7164 C   0  0  0  0  0  0  0  0  0  0  0  0
    2.8332    0.4691  -10.9065 C   0  0  0  0  0  0  0  0  0  0  0  0
    1.3243   -1.0818  -10.2780 C   0  0  0  0  0  0  0  0  0  0  0  0
    4.5490    0.6578  -11.0496 C   0  0  0  0  0  0  0  0  0  0  0  0
    3.6259    1.0303  -11.1447 C   0  0  0  0  0  0  0  0  0  0  0  0
 13  5  1  0
 13 14  1  0
  7  9  2  0
 15 17  1  0
 15  1  1  0
 15 16  1  0
 30 32  1  0
 30 34  1  0
 30 37  1  0
 19 18  1  0
 19 20  1  0
 19 21  1  0
 22  4  1  0
 22 27  1  0
 22 23  1  0
  8  2  1  0
  8  9  1  0
  8 10  1  0
 24 26  2  0
 24 27  1  0
 25 27  2  0
 25 29  1  0
 17 18  1  0
  1  2  2  0
  1  3  1  0
 31 32  2  0
 31 33  1  0
 31 35  1  0
 32 36  1  0
 33 34  2  0
 33 26  1  0
  2  6  1  0
  3  5  2  0
  4  5  1  0
  4  6  2  0
 26 28  1  0
 35 38  2  0
 36 39  2  0
 38 39  1  0
 28 29  2  0
  9 11  1  0
 11 12  2  0
M  END
> <PUBCHEM_COMPOUND_CID>
71496458

> <PUBCHEM_COMPOUND_CANONICALIZED>
1

> <PUBCHEM_CACTVS_COMPLEXITY>
752

> <PUBCHEM_CACTVS_HBOND_ACCEPTOR>
7

> <PUBCHEM_CACTVS_HBOND_DONOR>
2

> <PUBCHEM_CACTVS_ROTATABLE_BOND>
10

> <PUBCHEM_CACTVS_SUBSKEYS>
AAADcfB7sAAAAAAAAAAAAAAAAAAAAWAAAAA8YIAAAAAAAFgB/AAAHgAQAAAADAzBngY/1vfMFACoAzV3dACCiCkxIqAJ2CA/fNiObuLE+duVNChu1BvY6Kew0MMOgECAAgQCECAAgQAECAQgQAAAAAAAAA==

> <PUBCHEM_IUPAC_OPENEYE_NAME>
N-[2-[2-(dimethylamino)ethyl-methyl-amino]-4-methoxy-5-[[4-(1-methylindol-3-yl)pyrimidin-2-yl]amino]phenyl]prop-2-enamide

> <PUBCHEM_IUPAC_CAS_NAME>
N-[2-[2-(dimethylamino)ethyl-methylamino]-4-methoxy-5-[[4-(1-methyl-3-indolyl)-2-pyrimidinyl]amino]phenyl]-2-propenamide

> <PUBCHEM_IUPAC_NAME_MARKUP>
<I>N</I>-[2-[2-(dimethylamino)ethyl-methylamino]-4-methoxy-5-[[4-(1-methylindol-3-yl)pyrimidin-2-yl]amino]phenyl]prop-2-enamide

> <PUBCHEM_IUPAC_NAME>
N-[2-[2-(dimethylamino)ethyl-methylamino]-4-methoxy-5-[[4-(1-methylindol-3-yl)pyrimidin-2-yl]amino]phenyl]prop-2-enamide

> <PUBCHEM_IUPAC_SYSTEMATIC_NAME>
N-[2-[2-(dimethylamino)ethyl-methyl-amino]-4-methoxy-5-[[4-(1-methylindol-3-yl)pyrimidin-2-yl]amino]phenyl]prop-2-enamide

> <PUBCHEM_IUPAC_TRADITIONAL_NAME>
N-[2-[2-(dimethylamino)ethyl-methyl-amino]-4-methoxy-5-[[4-(1-methylindol-3-yl)pyrimidin-2-yl]amino]phenyl]acrylamide

> <PUBCHEM_IUPAC_INCHI>
InChI=1S/C28H33N7O2/c1-7-27(36)30-22-16-23(26(37-6)17-25(22)34(4)15-14-33(2)3)32-28-29-13-12-21(31-28)20-18-35(5)24-11-9-8-10-19(20)24/h7-13,16-18H,1,14-15H2,2-6H3,(H,30,36)(H,29,31,32)

> <PUBCHEM_IUPAC_INCHIKEY>
DUYJMQONPNNFPI-UHFFFAOYSA-N

> <PUBCHEM_XLOGP3_AA>
3.7

> <PUBCHEM_EXACT_MASS>
499.26957332

> <PUBCHEM_MOLECULAR_FORMULA>
C28H33N7O2

> <PUBCHEM_MOLECULAR_WEIGHT>
499.6

> <PUBCHEM_REFERENCE_STANDARDIZATION>
Bypass - this structure was created from CID 78357807

> <PUBCHEM_SMILES>
CN1C=C(C2=CC=CC=C21)C3=NC(=NC=C3)NC4=C(C=C(C(=C4)NC(=O)C=C)N(C)CCN(C)C)OC

> <PUBCHEM_OPENEYE_CAN_SMILES>
CN1C=C(C2=CC=CC=C21)C3=NC(=NC=C3)NC4=C(C=C(C(=C4)NC(=O)C=C)N(C)CCN(C)C)OC

> <PUBCHEM_OPENEYE_ISO_SMILES>
CN1C=C(C2=CC=CC=C21)C3=NC(=NC=C3)NC4=C(C=C(C(=C4)NC(=O)C=C)N(C)CCN(C)C)OC

> <PUBCHEM_CACTVS_TPSA>
87.6

> <PUBCHEM_MONOISOTOPIC_WEIGHT>
499.26957332

> <PUBCHEM_TOTAL_CHARGE>
0

> <PUBCHEM_HEAVY_ATOM_COUNT>
37

> <PUBCHEM_ATOM_DEF_STEREO_COUNT>
0

> <PUBCHEM_ATOM_UDEF_STEREO_COUNT>
0

> <PUBCHEM_BOND_DEF_STEREO_COUNT>
0

> <PUBCHEM_BOND_UDEF_STEREO_COUNT>
0

> <PUBCHEM_ISOTOPIC_ATOM_COUNT>
0

> <PUBCHEM_COMPONENT_COUNT>
1

> <PUBCHEM_CACTVS_TAUTO_COUNT>
-1

> <PUBCHEM_COORDINATE_TYPE>
1
5
255

> <PUBCHEM_BONDANNOTATIONS>
11  16  8
11  17  8
13  14  8
13  15  8
13  24  8
14  25  8
15  18  8
16  22  8
17  21  8
19  21  8
19  22  8
23  32  8
24  30  8
25  31  8
30  31  8
32  33  8
4  14  8
4  18  8
8  23  8
8  29  8
9  29  8
9  33  8

> <minimizedAffinity>
-8.37600

> <CNNscore>
0.0075195269

> <CNNaffinity>
4.6585555077

> <CNN_VS>
0.0350301340

> <CNNaffinity_variance>
3.1296110153

$$$$
71496458


 39 42  0  0  0  0  0  0  0  0999 V2000
    5.4360   -0.5774   -9.4562 C   0  0  0  0  0  0  0  0  0  0  0  0
    4.6247   -1.0949   -9.1844 C   0  0  0  0  0  0  0  0  0  0  0  0
    6.3076   -0.7335   -8.9914 C   0  0  0  0  0  0  0  0  0  0  0  0
    5.5564   -1.9247   -7.9831 C   0  0  0  0  0  0  0  0  0  0  0  0
    6.3678   -1.4072   -8.2549 C   0  0  0  0  0  0  0  0  0  0  0  0
    4.6849   -1.7686   -8.4479 C   0  0  0  0  0  0  0  0  0  0  0  0
    3.1491   -2.4348   -9.0191 O   0  0  0  0  0  0  0  0  0  0  0  0
    3.7532   -0.9387   -9.6492 N   0  0  0  0  0  0  0  0  0  0  0  0
    3.0153   -1.6087   -9.5665 C   0  0  0  0  0  0  0  0  0  0  0  0
    3.6702   -0.4265   -9.9886 H   0  0  0  0  0  0  0  0  0  0  0  0
    2.1438   -1.4525  -10.0314 C   0  0  0  0  0  0  0  0  0  0  0  0
    1.3220   -1.9347   -9.7280 C   0  0  0  0  0  0  0  0  0  0  0  0
    7.2394   -1.5634   -7.7901 O   0  0  0  0  0  0  0  0  0  0  0  0
    8.0982   -1.4704   -8.2938 C   0  0  0  0  0  0  0  0  0  0  0  0
    5.3758    0.0964  -10.1928 N   0  0  0  0  0  0  0  0  0  0  0  0
    4.4813    0.4065  -10.5148 C   0  0  0  0  0  0  0  0  0  0  0  0
    6.2102    0.4600  -10.6073 C   0  0  0  0  0  0  0  0  0  0  0  0
    6.3426    0.4030  -11.5968 C   0  0  0  0  0  0  0  0  0  0  0  0
    7.1805    0.7594  -12.0104 N   0  0  0  0  0  0  0  0  0  0  0  0
    7.1420    1.5623  -12.6052 C   0  0  0  0  0  0  0  0  0  0  0  0
    8.0567    0.3129  -11.8291 C   0  0  0  0  0  0  0  0  0  0  0  0
    5.6167   -2.5984   -7.2466 N   0  0  0  0  0  0  0  0  0  0  0  0
    5.8074   -2.4250   -6.6827 H   0  0  0  0  0  0  0  0  0  0  0  0
    4.6674   -3.9953   -6.8620 N   0  0  0  0  0  0  0  0  0  0  0  0
    5.8239   -4.0617   -8.1497 N   0  0  0  0  0  0  0  0  0  0  0  0
    4.4200   -4.9486   -7.0349 C   0  0  0  0  0  0  0  0  0  0  0  0
    5.3693   -3.5518   -7.4194 C   0  0  0  0  0  0  0  0  0  0  0  0
    4.8746   -5.4586   -7.7652 C   0  0  0  0  0  0  0  0  0  0  0  0
    5.5765   -5.0151   -8.3225 C   0  0  0  0  0  0  0  0  0  0  0  0
    2.9860   -6.1699   -5.2737 N   0  0  0  0  0  0  0  0  0  0  0  0
    2.7585   -5.4904   -6.7174 C   0  0  0  0  0  0  0  0  0  0  0  0
    2.3036   -5.9737   -5.9694 C   0  0  0  0  0  0  0  0  0  0  0  0
    3.7181   -5.3920   -6.4775 C   0  0  0  0  0  0  0  0  0  0  0  0
    3.8585   -5.8111   -5.5871 C   0  0  0  0  0  0  0  0  0  0  0  0
    2.2344   -5.2039   -7.5195 C   0  0  0  0  0  0  0  0  0  0  0  0
    1.3246   -6.1706   -6.0236 C   0  0  0  0  0  0  0  0  0  0  0  0
    2.8231   -6.6454   -4.4092 C   0  0  0  0  0  0  0  0  0  0  0  0
    1.2555   -5.4008   -7.5736 C   0  0  0  0  0  0  0  0  0  0  0  0
    0.8006   -5.8841   -6.8256 C   0  0  0  0  0  0  0  0  0  0  0  0
 13  5  1  0
 13 14  1  0
  7  9  2  0
 15 17  1  0
 15  1  1  0
 15 16  1  0
 30 32  1  0
 30 34  1  0
 30 37  1  0
 19 18  1  0
 19 20  1  0
 19 21  1  0
 22  4  1  0
 22 27  1  0
 22 23  1  0
  8  2  1  0
  8  9  1  0
  8 10  1  0
 24 26  2  0
 24 27  1  0
 25 27  2  0
 25 29  1  0
 17 18  1  0
  1  2  2  0
  1  3  1  0
 31 32  2  0
 31 33  1  0
 31 35  1  0
 32 36  1  0
 33 34  2  0
 33 26  1  0
  2  6  1  0
  3  5  2  0
  4  5  1  0
  4  6  2  0
 26 28  1  0
 35 38  2  0
 36 39  2  0
 38 39  1  0
 28 29  2  0
  9 11  1  0
 11 12  2  0
M  END
> <PUBCHEM_COMPOUND_CID>
71496458

> <PUBCHEM_COMPOUND_CANONICALIZED>
1

> <PUBCHEM_CACTVS_COMPLEXITY>
752

> <PUBCHEM_CACTVS_HBOND_ACCEPTOR>
7

> <PUBCHEM_CACTVS_HBOND_DONOR>
2

> <PUBCHEM_CACTVS_ROTATABLE_BOND>
10

> <PUBCHEM_CACTVS_SUBSKEYS>
AAADcfB7sAAAAAAAAAAAAAAAAAAAAWAAAAA8YIAAAAAAAFgB/AAAHgAQAAAADAzBngY/1vfMFACoAzV3dACCiCkxIqAJ2CA/fNiObuLE+duVNChu1BvY6Kew0MMOgECAAgQCECAAgQAECAQgQAAAAAAAAA==

> <PUBCHEM_IUPAC_OPENEYE_NAME>
N-[2-[2-(dimethylamino)ethyl-methyl-amino]-4-methoxy-5-[[4-(1-methylindol-3-yl)pyrimidin-2-yl]amino]phenyl]prop-2-enamide

> <PUBCHEM_IUPAC_CAS_NAME>
N-[2-[2-(dimethylamino)ethyl-methylamino]-4-methoxy-5-[[4-(1-methyl-3-indolyl)-2-pyrimidinyl]amino]phenyl]-2-propenamide

> <PUBCHEM_IUPAC_NAME_MARKUP>
<I>N</I>-[2-[2-(dimethylamino)ethyl-methylamino]-4-methoxy-5-[[4-(1-methylindol-3-yl)pyrimidin-2-yl]amino]phenyl]prop-2-enamide

> <PUBCHEM_IUPAC_NAME>
N-[2-[2-(dimethylamino)ethyl-methylamino]-4-methoxy-5-[[4-(1-methylindol-3-yl)pyrimidin-2-yl]amino]phenyl]prop-2-enamide

> <PUBCHEM_IUPAC_SYSTEMATIC_NAME>
N-[2-[2-(dimethylamino)ethyl-methyl-amino]-4-methoxy-5-[[4-(1-methylindol-3-yl)pyrimidin-2-yl]amino]phenyl]prop-2-enamide

> <PUBCHEM_IUPAC_TRADITIONAL_NAME>
N-[2-[2-(dimethylamino)ethyl-methyl-amino]-4-methoxy-5-[[4-(1-methylindol-3-yl)pyrimidin-2-yl]amino]phenyl]acrylamide

> <PUBCHEM_IUPAC_INCHI>
InChI=1S/C28H33N7O2/c1-7-27(36)30-22-16-23(26(37-6)17-25(22)34(4)15-14-33(2)3)32-28-29-13-12-21(31-28)20-18-35(5)24-11-9-8-10-19(20)24/h7-13,16-18H,1,14-15H2,2-6H3,(H,30,36)(H,29,31,32)

> <PUBCHEM_IUPAC_INCHIKEY>
DUYJMQONPNNFPI-UHFFFAOYSA-N

> <PUBCHEM_XLOGP3_AA>
3.7

> <PUBCHEM_EXACT_MASS>
499.26957332

> <PUBCHEM_MOLECULAR_FORMULA>
C28H33N7O2

> <PUBCHEM_MOLECULAR_WEIGHT>
499.6

> <PUBCHEM_REFERENCE_STANDARDIZATION>
Bypass - this structure was created from CID 78357807

> <PUBCHEM_SMILES>
CN1C=C(C2=CC=CC=C21)C3=NC(=NC=C3)NC4=C(C=C(C(=C4)NC(=O)C=C)N(C)CCN(C)C)OC

> <PUBCHEM_OPENEYE_CAN_SMILES>
CN1C=C(C2=CC=CC=C21)C3=NC(=NC=C3)NC4=C(C=C(C(=C4)NC(=O)C=C)N(C)CCN(C)C)OC

> <PUBCHEM_OPENEYE_ISO_SMILES>
CN1C=C(C2=CC=CC=C21)C3=NC(=NC=C3)NC4=C(C=C(C(=C4)NC(=O)C=C)N(C)CCN(C)C)OC

> <PUBCHEM_CACTVS_TPSA>
87.6

> <PUBCHEM_MONOISOTOPIC_WEIGHT>
499.26957332

> <PUBCHEM_TOTAL_CHARGE>
0

> <PUBCHEM_HEAVY_ATOM_COUNT>
37

> <PUBCHEM_ATOM_DEF_STEREO_COUNT>
0

> <PUBCHEM_ATOM_UDEF_STEREO_COUNT>
0

> <PUBCHEM_BOND_DEF_STEREO_COUNT>
0

> <PUBCHEM_BOND_UDEF_STEREO_COUNT>
0

> <PUBCHEM_ISOTOPIC_ATOM_COUNT>
0

> <PUBCHEM_COMPONENT_COUNT>
1

> <PUBCHEM_CACTVS_TAUTO_COUNT>
-1

> <PUBCHEM_COORDINATE_TYPE>
1
5
255

> <PUBCHEM_BONDANNOTATIONS>
11  16  8
11  17  8
13  14  8
13  15  8
13  24  8
14  25  8
15  18  8
16  22  8
17  21  8
19  21  8
19  22  8
23  32  8
24  30  8
25  31  8
30  31  8
32  33  8
4  14  8
4  18  8
8  23  8
8  29  8
9  29  8
9  33  8

> <minimizedAffinity>
-9.46701

> <CNNscore>
0.0064063184

> <CNNaffinity>
4.7531652451

> <CNN_VS>
0.0304502901

> <CNNaffinity_variance>
2.5019428730

$$$$
71496458


 39 42  0  0  0  0  0  0  0  0999 V2000
   -0.6950   10.4535   19.9487 C   0  0  0  0  0  0  0  0  0  0  0  0
   -0.3026   11.3066   20.2924 C   0  0  0  0  0  0  0  0  0  0  0  0
   -0.2271    9.9428   19.2274 C   0  0  0  0  0  0  0  0  0  0  0  0
    1.0256   11.1385   19.1936 C   0  0  0  0  0  0  0  0  0  0  0  0
    0.6332   10.2853   18.8498 C   0  0  0  0  0  0  0  0  0  0  0  0
    0.5577   11.6491   19.9149 C   0  0  0  0  0  0  0  0  0  0  0  0
    0.7375   12.0358   21.8372 O   0  0  0  0  0  0  0  0  0  0  0  0
   -0.7706   11.8172   21.0137 N   0  0  0  0  0  0  0  0  0  0  0  0
   -0.2504   12.1818   21.7862 C   0  0  0  0  0  0  0  0  0  0  0  0
   -1.3831   11.9077   20.9821 H   0  0  0  0  0  0  0  0  0  0  0  0
   -0.7184   12.6924   22.5075 C   0  0  0  0  0  0  0  0  0  0  0  0
   -1.6852   12.9275   22.4069 C   0  0  0  0  0  0  0  0  0  0  0  0
    1.1011    9.7746   18.1285 O   0  0  0  0  0  0  0  0  0  0  0  0
    0.5756    9.1995   17.5016 C   0  0  0  0  0  0  0  0  0  0  0  0
   -1.5554   10.1109   20.3263 N   0  0  0  0  0  0  0  0  0  0  0  0
   -2.4265   10.4697   19.9909 C   0  0  0  0  0  0  0  0  0  0  0  0
   -1.5445    9.4097   21.0392 C   0  0  0  0  0  0  0  0  0  0  0  0
   -2.2254    8.6774   21.0305 C   0  0  0  0  0  0  0  0  0  0  0  0
   -2.0603    7.8352   21.5438 N   0  0  0  0  0  0  0  0  0  0  0  0
   -1.8263    7.8794   22.5150 C   0  0  0  0  0  0  0  0  0  0  0  0
   -2.1293    6.9488   21.0860 C   0  0  0  0  0  0  0  0  0  0  0  0
    1.8859   11.4809   18.8160 N   0  0  0  0  0  0  0  0  0  0  0  0
    1.9416   11.5729   18.2053 H   0  0  0  0  0  0  0  0  0  0  0  0
    3.0105   12.6072   19.4993 N   0  0  0  0  0  0  0  0  0  0  0  0
    3.0727   10.9371   19.9542 N   0  0  0  0  0  0  0  0  0  0  0  0
    3.7810   12.8013   20.1065 C   0  0  0  0  0  0  0  0  0  0  0  0
    2.6564   11.6751   19.4231 C   0  0  0  0  0  0  0  0  0  0  0  0
    4.1973   12.0633   20.6375 C   0  0  0  0  0  0  0  0  0  0  0  0
    3.8432   11.1313   20.5614 C   0  0  0  0  0  0  0  0  0  0  0  0
    4.4290   15.2184   20.7290 N   0  0  0  0  0  0  0  0  0  0  0  0
    4.7406   14.1823   19.5344 C   0  0  0  0  0  0  0  0  0  0  0  0
    4.9232   15.1049   19.8740 C   0  0  0  0  0  0  0  0  0  0  0  0
    4.1351   13.7334   20.1825 C   0  0  0  0  0  0  0  0  0  0  0  0
    3.9429   14.3724   20.9193 C   0  0  0  0  0  0  0  0  0  0  0  0
    5.1526   13.8745   18.6767 C   0  0  0  0  0  0  0  0  0  0  0  0
    5.5179   15.7198   19.3559 C   0  0  0  0  0  0  0  0  0  0  0  0
    4.4221   16.0404   21.2985 C   0  0  0  0  0  0  0  0  0  0  0  0
    5.7472   14.4893   18.1587 C   0  0  0  0  0  0  0  0  0  0  0  0
    5.9298   15.4120   18.4983 C   0  0  0  0  0  0  0  0  0  0  0  0
 13  5  1  0
 13 14  1  0
  7  9  2  0
 15 17  1  0
 15  1  1  0
 15 16  1  0
 30 32  1  0
 30 34  1  0
 30 37  1  0
 19 18  1  0
 19 20  1  0
 19 21  1  0
 22  4  1  0
 22 27  1  0
 22 23  1  0
  8  2  1  0
  8  9  1  0
  8 10  1  0
 24 26  2  0
 24 27  1  0
 25 27  2  0
 25 29  1  0
 17 18  1  0
  1  2  2  0
  1  3  1  0
 31 32  2  0
 31 33  1  0
 31 35  1  0
 32 36  1  0
 33 34  2  0
 33 26  1  0
  2  6  1  0
  3  5  2  0
  4  5  1  0
  4  6  2  0
 26 28  1  0
 35 38  2  0
 36 39  2  0
 38 39  1  0
 28 29  2  0
  9 11  1  0
 11 12  2  0
M  END
> <PUBCHEM_COMPOUND_CID>
71496458

> <PUBCHEM_COMPOUND_CANONICALIZED>
1

> <PUBCHEM_CACTVS_COMPLEXITY>
752

> <PUBCHEM_CACTVS_HBOND_ACCEPTOR>
7

> <PUBCHEM_CACTVS_HBOND_DONOR>
2

> <PUBCHEM_CACTVS_ROTATABLE_BOND>
10

> <PUBCHEM_CACTVS_SUBSKEYS>
AAADcfB7sAAAAAAAAAAAAAAAAAAAAWAAAAA8YIAAAAAAAFgB/AAAHgAQAAAADAzBngY/1vfMFACoAzV3dACCiCkxIqAJ2CA/fNiObuLE+duVNChu1BvY6Kew0MMOgECAAgQCECAAgQAECAQgQAAAAAAAAA==

> <PUBCHEM_IUPAC_OPENEYE_NAME>
N-[2-[2-(dimethylamino)ethyl-methyl-amino]-4-methoxy-5-[[4-(1-methylindol-3-yl)pyrimidin-2-yl]amino]phenyl]prop-2-enamide

> <PUBCHEM_IUPAC_CAS_NAME>
N-[2-[2-(dimethylamino)ethyl-methylamino]-4-methoxy-5-[[4-(1-methyl-3-indolyl)-2-pyrimidinyl]amino]phenyl]-2-propenamide

> <PUBCHEM_IUPAC_NAME_MARKUP>
<I>N</I>-[2-[2-(dimethylamino)ethyl-methylamino]-4-methoxy-5-[[4-(1-methylindol-3-yl)pyrimidin-2-yl]amino]phenyl]prop-2-enamide

> <PUBCHEM_IUPAC_NAME>
N-[2-[2-(dimethylamino)ethyl-methylamino]-4-methoxy-5-[[4-(1-methylindol-3-yl)pyrimidin-2-yl]amino]phenyl]prop-2-enamide

> <PUBCHEM_IUPAC_SYSTEMATIC_NAME>
N-[2-[2-(dimethylamino)ethyl-methyl-amino]-4-methoxy-5-[[4-(1-methylindol-3-yl)pyrimidin-2-yl]amino]phenyl]prop-2-enamide

> <PUBCHEM_IUPAC_TRADITIONAL_NAME>
N-[2-[2-(dimethylamino)ethyl-methyl-amino]-4-methoxy-5-[[4-(1-methylindol-3-yl)pyrimidin-2-yl]amino]phenyl]acrylamide

> <PUBCHEM_IUPAC_INCHI>
InChI=1S/C28H33N7O2/c1-7-27(36)30-22-16-23(26(37-6)17-25(22)34(4)15-14-33(2)3)32-28-29-13-12-21(31-28)20-18-35(5)24-11-9-8-10-19(20)24/h7-13,16-18H,1,14-15H2,2-6H3,(H,30,36)(H,29,31,32)

> <PUBCHEM_IUPAC_INCHIKEY>
DUYJMQONPNNFPI-UHFFFAOYSA-N

> <PUBCHEM_XLOGP3_AA>
3.7

> <PUBCHEM_EXACT_MASS>
499.26957332

> <PUBCHEM_MOLECULAR_FORMULA>
C28H33N7O2

> <PUBCHEM_MOLECULAR_WEIGHT>
499.6

> <PUBCHEM_REFERENCE_STANDARDIZATION>
Bypass - this structure was created from CID 78357807

> <PUBCHEM_SMILES>
CN1C=C(C2=CC=CC=C21)C3=NC(=NC=C3)NC4=C(C=C(C(=C4)NC(=O)C=C)N(C)CCN(C)C)OC

> <PUBCHEM_OPENEYE_CAN_SMILES>
CN1C=C(C2=CC=CC=C21)C3=NC(=NC=C3)NC4=C(C=C(C(=C4)NC(=O)C=C)N(C)CCN(C)C)OC

> <PUBCHEM_OPENEYE_ISO_SMILES>
CN1C=C(C2=CC=CC=C21)C3=NC(=NC=C3)NC4=C(C=C(C(=C4)NC(=O)C=C)N(C)CCN(C)C)OC

> <PUBCHEM_CACTVS_TPSA>
87.6

> <PUBCHEM_MONOISOTOPIC_WEIGHT>
499.26957332

> <PUBCHEM_TOTAL_CHARGE>
0

> <PUBCHEM_HEAVY_ATOM_COUNT>
37

> <PUBCHEM_ATOM_DEF_STEREO_COUNT>
0

> <PUBCHEM_ATOM_UDEF_STEREO_COUNT>
0

> <PUBCHEM_BOND_DEF_STEREO_COUNT>
0

> <PUBCHEM_BOND_UDEF_STEREO_COUNT>
0

> <PUBCHEM_ISOTOPIC_ATOM_COUNT>
0

> <PUBCHEM_COMPONENT_COUNT>
1

> <PUBCHEM_CACTVS_TAUTO_COUNT>
-1

> <PUBCHEM_COORDINATE_TYPE>
1
5
255

> <PUBCHEM_BONDANNOTATIONS>
11  16  8
11  17  8
13  14  8
13  15  8
13  24  8
14  25  8
15  18  8
16  22  8
17  21  8
19  21  8
19  22  8
23  32  8
24  30  8
25  31  8
30  31  8
32  33  8
4  14  8
4  18  8
8  23  8
8  29  8
9  29  8
9  33  8

> <minimizedAffinity>
-6.42484

> <CNNscore>
0.0058953566

> <CNNaffinity>
3.7331645489

> <CNN_VS>
0.0220083371

> <CNNaffinity_variance>
2.8921673298

$$$$
71496458


 39 42  0  0  0  0  0  0  0  0999 V2000
    3.5951   -5.7791   -5.5143 C   0  0  0  0  0  0  0  0  0  0  0  0
    4.1463   -5.3864   -6.2504 C   0  0  0  0  0  0  0  0  0  0  0  0
    2.6092   -5.8945   -5.6349 C   0  0  0  0  0  0  0  0  0  0  0  0
    2.7256   -5.2246   -7.2278 C   0  0  0  0  0  0  0  0  0  0  0  0
    2.1744   -5.6173   -6.4916 C   0  0  0  0  0  0  0  0  0  0  0  0
    3.7116   -5.1092   -7.1072 C   0  0  0  0  0  0  0  0  0  0  0  0
    5.3972   -5.8525   -7.7397 O   0  0  0  0  0  0  0  0  0  0  0  0
    5.1322   -5.2710   -6.1297 N   0  0  0  0  0  0  0  0  0  0  0  0
    5.7578   -5.5040   -6.8745 C   0  0  0  0  0  0  0  0  0  0  0  0
    5.3558   -5.0550   -5.5933 H   0  0  0  0  0  0  0  0  0  0  0  0
    6.7437   -5.3886   -6.7538 C   0  0  0  0  0  0  0  0  0  0  0  0
    7.3324   -6.1908   -6.6540 C   0  0  0  0  0  0  0  0  0  0  0  0
    1.1884   -5.7328   -6.6122 O   0  0  0  0  0  0  0  0  0  0  0  0
    0.6996   -6.4328   -6.0916 C   0  0  0  0  0  0  0  0  0  0  0  0
    4.0299   -6.0563   -4.6574 N   0  0  0  0  0  0  0  0  0  0  0  0
    4.3692   -5.3630   -4.0216 C   0  0  0  0  0  0  0  0  0  0  0  0
    4.1254   -7.0269   -4.4364 C   0  0  0  0  0  0  0  0  0  0  0  0
    4.3839   -7.3060   -3.5115 C   0  0  0  0  0  0  0  0  0  0  0  0
    4.3668   -8.2732   -3.2580 N   0  0  0  0  0  0  0  0  0  0  0  0
    5.1984   -8.8238   -3.3307 C   0  0  0  0  0  0  0  0  0  0  0  0
    3.5182   -8.6898   -2.9318 C   0  0  0  0  0  0  0  0  0  0  0  0
    2.2908   -4.9474   -8.0846 N   0  0  0  0  0  0  0  0  0  0  0  0
    2.1244   -5.3760   -8.5007 H   0  0  0  0  0  0  0  0  0  0  0  0
    2.8799   -3.3863   -8.5496 N   0  0  0  0  0  0  0  0  0  0  0  0
    1.2023   -3.6034   -8.1774 N   0  0  0  0  0  0  0  0  0  0  0  0
    2.7134   -2.4180   -8.7355 C   0  0  0  0  0  0  0  0  0  0  0  0
    2.1244   -3.9790   -8.2706 C   0  0  0  0  0  0  0  0  0  0  0  0
    1.7914   -2.0423   -8.6424 C   0  0  0  0  0  0  0  0  0  0  0  0
    1.0359   -2.6350   -8.3633 C   0  0  0  0  0  0  0  0  0  0  0  0
    4.8932   -1.0765   -9.0502 N   0  0  0  0  0  0  0  0  0  0  0  0
    3.4781   -1.2256   -9.8072 C   0  0  0  0  0  0  0  0  0  0  0  0
    4.3630   -0.7603   -9.8294 C   0  0  0  0  0  0  0  0  0  0  0  0
    3.4690   -1.8254   -9.0146 C   0  0  0  0  0  0  0  0  0  0  0  0
    4.3417   -1.7335   -8.5476 C   0  0  0  0  0  0  0  0  0  0  0  0
    2.7972   -1.0390  -10.5155 C   0  0  0  0  0  0  0  0  0  0  0  0
    4.5670   -0.1084  -10.5598 C   0  0  0  0  0  0  0  0  0  0  0  0
    5.8198   -0.7846   -8.8133 C   0  0  0  0  0  0  0  0  0  0  0  0
    3.0012   -0.3872  -11.2459 C   0  0  0  0  0  0  0  0  0  0  0  0
    3.8861    0.0781  -11.2681 C   0  0  0  0  0  0  0  0  0  0  0  0
 13  5  1  0
 13 14  1  0
  7  9  2  0
 15 17  1  0
 15  1  1  0
 15 16  1  0
 30 32  1  0
 30 34  1  0
 30 37  1  0
 19 18  1  0
 19 20  1  0
 19 21  1  0
 22  4  1  0
 22 27  1  0
 22 23  1  0
  8  2  1  0
  8  9  1  0
  8 10  1  0
 24 26  2  0
 24 27  1  0
 25 27  2  0
 25 29  1  0
 17 18  1  0
  1  2  2  0
  1  3  1  0
 31 32  2  0
 31 33  1  0
 31 35  1  0
 32 36  1  0
 33 34  2  0
 33 26  1  0
  2  6  1  0
  3  5  2  0
  4  5  1  0
  4  6  2  0
 26 28  1  0
 35 38  2  0
 36 39  2  0
 38 39  1  0
 28 29  2  0
  9 11  1  0
 11 12  2  0
M  END
> <PUBCHEM_COMPOUND_CID>
71496458

> <PUBCHEM_COMPOUND_CANONICALIZED>
1

> <PUBCHEM_CACTVS_COMPLEXITY>
752

> <PUBCHEM_CACTVS_HBOND_ACCEPTOR>
7

> <PUBCHEM_CACTVS_HBOND_DONOR>
2

> <PUBCHEM_CACTVS_ROTATABLE_BOND>
10

> <PUBCHEM_CACTVS_SUBSKEYS>
AAADcfB7sAAAAAAAAAAAAAAAAAAAAWAAAAA8YIAAAAAAAFgB/AAAHgAQAAAADAzBngY/1vfMFACoAzV3dACCiCkxIqAJ2CA/fNiObuLE+duVNChu1BvY6Kew0MMOgECAAgQCECAAgQAECAQgQAAAAAAAAA==

> <PUBCHEM_IUPAC_OPENEYE_NAME>
N-[2-[2-(dimethylamino)ethyl-methyl-amino]-4-methoxy-5-[[4-(1-methylindol-3-yl)pyrimidin-2-yl]amino]phenyl]prop-2-enamide

> <PUBCHEM_IUPAC_CAS_NAME>
N-[2-[2-(dimethylamino)ethyl-methylamino]-4-methoxy-5-[[4-(1-methyl-3-indolyl)-2-pyrimidinyl]amino]phenyl]-2-propenamide

> <PUBCHEM_IUPAC_NAME_MARKUP>
<I>N</I>-[2-[2-(dimethylamino)ethyl-methylamino]-4-methoxy-5-[[4-(1-methylindol-3-yl)pyrimidin-2-yl]amino]phenyl]prop-2-enamide

> <PUBCHEM_IUPAC_NAME>
N-[2-[2-(dimethylamino)ethyl-methylamino]-4-methoxy-5-[[4-(1-methylindol-3-yl)pyrimidin-2-yl]amino]phenyl]prop-2-enamide

> <PUBCHEM_IUPAC_SYSTEMATIC_NAME>
N-[2-[2-(dimethylamino)ethyl-methyl-amino]-4-methoxy-5-[[4-(1-methylindol-3-yl)pyrimidin-2-yl]amino]phenyl]prop-2-enamide

> <PUBCHEM_IUPAC_TRADITIONAL_NAME>
N-[2-[2-(dimethylamino)ethyl-methyl-amino]-4-methoxy-5-[[4-(1-methylindol-3-yl)pyrimidin-2-yl]amino]phenyl]acrylamide

> <PUBCHEM_IUPAC_INCHI>
InChI=1S/C28H33N7O2/c1-7-27(36)30-22-16-23(26(37-6)17-25(22)34(4)15-14-33(2)3)32-28-29-13-12-21(31-28)20-18-35(5)24-11-9-8-10-19(20)24/h7-13,16-18H,1,14-15H2,2-6H3,(H,30,36)(H,29,31,32)

> <PUBCHEM_IUPAC_INCHIKEY>
DUYJMQONPNNFPI-UHFFFAOYSA-N

> <PUBCHEM_XLOGP3_AA>
3.7

> <PUBCHEM_EXACT_MASS>
499.26957332

> <PUBCHEM_MOLECULAR_FORMULA>
C28H33N7O2

> <PUBCHEM_MOLECULAR_WEIGHT>
499.6

> <PUBCHEM_REFERENCE_STANDARDIZATION>
Bypass - this structure was created from CID 78357807

> <PUBCHEM_SMILES>
CN1C=C(C2=CC=CC=C21)C3=NC(=NC=C3)NC4=C(C=C(C(=C4)NC(=O)C=C)N(C)CCN(C)C)OC

> <PUBCHEM_OPENEYE_CAN_SMILES>
CN1C=C(C2=CC=CC=C21)C3=NC(=NC=C3)NC4=C(C=C(C(=C4)NC(=O)C=C)N(C)CCN(C)C)OC

> <PUBCHEM_OPENEYE_ISO_SMILES>
CN1C=C(C2=CC=CC=C21)C3=NC(=NC=C3)NC4=C(C=C(C(=C4)NC(=O)C=C)N(C)CCN(C)C)OC

> <PUBCHEM_CACTVS_TPSA>
87.6

> <PUBCHEM_MONOISOTOPIC_WEIGHT>
499.26957332

> <PUBCHEM_TOTAL_CHARGE>
0

> <PUBCHEM_HEAVY_ATOM_COUNT>
37

> <PUBCHEM_ATOM_DEF_STEREO_COUNT>
0

> <PUBCHEM_ATOM_UDEF_STEREO_COUNT>
0

> <PUBCHEM_BOND_DEF_STEREO_COUNT>
0

> <PUBCHEM_BOND_UDEF_STEREO_COUNT>
0

> <PUBCHEM_ISOTOPIC_ATOM_COUNT>
0

> <PUBCHEM_COMPONENT_COUNT>
1

> <PUBCHEM_CACTVS_TAUTO_COUNT>
-1

> <PUBCHEM_COORDINATE_TYPE>
1
5
255

> <PUBCHEM_BONDANNOTATIONS>
11  16  8
11  17  8
13  14  8
13  15  8
13  24  8
14  25  8
15  18  8
16  22  8
17  21  8
19  21  8
19  22  8
23  32  8
24  30  8
25  31  8
30  31  8
32  33  8
4  14  8
4  18  8
8  23  8
8  29  8
9  29  8
9  33  8

> <minimizedAffinity>
-8.48701

> <CNNscore>
0.0056620887

> <CNNaffinity>
4.7095727921

> <CNN_VS>
0.0266660191

> <CNNaffinity_variance>
3.0684330463

$$$$
71496458


 39 42  0  0  0  0  0  0  0  0999 V2000
    1.2887   16.4492   -1.5877 C   0  0  0  0  0  0  0  0  0  0  0  0
    0.7074   16.4960   -0.7754 C   0  0  0  0  0  0  0  0  0  0  0  0
    2.2249   16.7988   -1.5533 C   0  0  0  0  0  0  0  0  0  0  0  0
    1.9985   17.2419    0.1057 C   0  0  0  0  0  0  0  0  0  0  0  0
    2.5799   17.1952   -0.7066 C   0  0  0  0  0  0  0  0  0  0  0  0
    1.0623   16.8923    0.0713 C   0  0  0  0  0  0  0  0  0  0  0  0
   -0.7600   17.4725    0.1698 O   0  0  0  0  0  0  0  0  0  0  0  0
   -0.2289   16.1464   -0.8098 N   0  0  0  0  0  0  0  0  0  0  0  0
   -0.9626   16.6347   -0.3372 C   0  0  0  0  0  0  0  0  0  0  0  0
   -0.3546   15.6270   -1.1242 H   0  0  0  0  0  0  0  0  0  0  0  0
   -1.8989   16.2851   -0.3717 C   0  0  0  0  0  0  0  0  0  0  0  0
   -2.4877   16.5085   -1.1484 C   0  0  0  0  0  0  0  0  0  0  0  0
    3.5162   17.5448   -0.6723 O   0  0  0  0  0  0  0  0  0  0  0  0
    4.0451   17.6414   -1.5154 C   0  0  0  0  0  0  0  0  0  0  0  0
    0.9337   16.0529   -2.4345 N   0  0  0  0  0  0  0  0  0  0  0  0
    0.9221   15.0603   -2.5555 C   0  0  0  0  0  0  0  0  0  0  0  0
    0.5903   16.6492   -3.1602 C   0  0  0  0  0  0  0  0  0  0  0  0
    0.5860   16.3313   -4.1083 C   0  0  0  0  0  0  0  0  0  0  0  0
    0.3162   16.9536   -4.8430 N   0  0  0  0  0  0  0  0  0  0  0  0
   -0.6020   16.8961   -5.2350 C   0  0  0  0  0  0  0  0  0  0  0  0
    0.9644   17.6336   -5.1858 C   0  0  0  0  0  0  0  0  0  0  0  0
    2.3535   17.6383    0.9524 N   0  0  0  0  0  0  0  0  0  0  0  0
    2.6570   18.1788    0.9383 H   0  0  0  0  0  0  0  0  0  0  0  0
    1.7495   17.6226    2.5757 N   0  0  0  0  0  0  0  0  0  0  0  0
    2.5544   16.2279    1.9375 N   0  0  0  0  0  0  0  0  0  0  0  0
    1.6152   17.1472    3.4452 C   0  0  0  0  0  0  0  0  0  0  0  0
    2.2191   17.1630    1.8219 C   0  0  0  0  0  0  0  0  0  0  0  0
    1.9504   16.2122    3.5608 C   0  0  0  0  0  0  0  0  0  0  0  0
    2.4199   15.7526    2.8070 C   0  0  0  0  0  0  0  0  0  0  0  0
   -0.0123   18.1492    5.1765 N   0  0  0  0  0  0  0  0  0  0  0  0
    1.5791   18.1342    4.9215 C   0  0  0  0  0  0  0  0  0  0  0  0
    0.8597   18.4712    5.5289 C   0  0  0  0  0  0  0  0  0  0  0  0
    1.1456   17.6069    4.1989 C   0  0  0  0  0  0  0  0  0  0  0  0
    0.1641   17.6161    4.3562 C   0  0  0  0  0  0  0  0  0  0  0  0
    2.5363   18.3545    5.1098 C   0  0  0  0  0  0  0  0  0  0  0  0
    1.0975   19.0284    6.3246 C   0  0  0  0  0  0  0  0  0  0  0  0
   -0.9103   18.3301    5.5773 C   0  0  0  0  0  0  0  0  0  0  0  0
    2.7740   18.9116    5.9055 C   0  0  0  0  0  0  0  0  0  0  0  0
    2.0545   19.2486    6.5129 C   0  0  0  0  0  0  0  0  0  0  0  0
 13  5  1  0
 13 14  1  0
  7  9  2  0
 15 17  1  0
 15  1  1  0
 15 16  1  0
 30 32  1  0
 30 34  1  0
 30 37  1  0
 19 18  1  0
 19 20  1  0
 19 21  1  0
 22  4  1  0
 22 27  1  0
 22 23  1  0
  8  2  1  0
  8  9  1  0
  8 10  1  0
 24 26  2  0
 24 27  1  0
 25 27  2  0
 25 29  1  0
 17 18  1  0
  1  2  2  0
  1  3  1  0
 31 32  2  0
 31 33  1  0
 31 35  1  0
 32 36  1  0
 33 34  2  0
 33 26  1  0
  2  6  1  0
  3  5  2  0
  4  5  1  0
  4  6  2  0
 26 28  1  0
 35 38  2  0
 36 39  2  0
 38 39  1  0
 28 29  2  0
  9 11  1  0
 11 12  2  0
M  END
> <PUBCHEM_COMPOUND_CID>
71496458

> <PUBCHEM_COMPOUND_CANONICALIZED>
1

> <PUBCHEM_CACTVS_COMPLEXITY>
752

> <PUBCHEM_CACTVS_HBOND_ACCEPTOR>
7

> <PUBCHEM_CACTVS_HBOND_DONOR>
2

> <PUBCHEM_CACTVS_ROTATABLE_BOND>
10

> <PUBCHEM_CACTVS_SUBSKEYS>
AAADcfB7sAAAAAAAAAAAAAAAAAAAAWAAAAA8YIAAAAAAAFgB/AAAHgAQAAAADAzBngY/1vfMFACoAzV3dACCiCkxIqAJ2CA/fNiObuLE+duVNChu1BvY6Kew0MMOgECAAgQCECAAgQAECAQgQAAAAAAAAA==

> <PUBCHEM_IUPAC_OPENEYE_NAME>
N-[2-[2-(dimethylamino)ethyl-methyl-amino]-4-methoxy-5-[[4-(1-methylindol-3-yl)pyrimidin-2-yl]amino]phenyl]prop-2-enamide

> <PUBCHEM_IUPAC_CAS_NAME>
N-[2-[2-(dimethylamino)ethyl-methylamino]-4-methoxy-5-[[4-(1-methyl-3-indolyl)-2-pyrimidinyl]amino]phenyl]-2-propenamide

> <PUBCHEM_IUPAC_NAME_MARKUP>
<I>N</I>-[2-[2-(dimethylamino)ethyl-methylamino]-4-methoxy-5-[[4-(1-methylindol-3-yl)pyrimidin-2-yl]amino]phenyl]prop-2-enamide

> <PUBCHEM_IUPAC_NAME>
N-[2-[2-(dimethylamino)ethyl-methylamino]-4-methoxy-5-[[4-(1-methylindol-3-yl)pyrimidin-2-yl]amino]phenyl]prop-2-enamide

> <PUBCHEM_IUPAC_SYSTEMATIC_NAME>
N-[2-[2-(dimethylamino)ethyl-methyl-amino]-4-methoxy-5-[[4-(1-methylindol-3-yl)pyrimidin-2-yl]amino]phenyl]prop-2-enamide

> <PUBCHEM_IUPAC_TRADITIONAL_NAME>
N-[2-[2-(dimethylamino)ethyl-methyl-amino]-4-methoxy-5-[[4-(1-methylindol-3-yl)pyrimidin-2-yl]amino]phenyl]acrylamide

> <PUBCHEM_IUPAC_INCHI>
InChI=1S/C28H33N7O2/c1-7-27(36)30-22-16-23(26(37-6)17-25(22)34(4)15-14-33(2)3)32-28-29-13-12-21(31-28)20-18-35(5)24-11-9-8-10-19(20)24/h7-13,16-18H,1,14-15H2,2-6H3,(H,30,36)(H,29,31,32)

> <PUBCHEM_IUPAC_INCHIKEY>
DUYJMQONPNNFPI-UHFFFAOYSA-N

> <PUBCHEM_XLOGP3_AA>
3.7

> <PUBCHEM_EXACT_MASS>
499.26957332

> <PUBCHEM_MOLECULAR_FORMULA>
C28H33N7O2

> <PUBCHEM_MOLECULAR_WEIGHT>
499.6

> <PUBCHEM_REFERENCE_STANDARDIZATION>
Bypass - this structure was created from CID 78357807

> <PUBCHEM_SMILES>
CN1C=C(C2=CC=CC=C21)C3=NC(=NC=C3)NC4=C(C=C(C(=C4)NC(=O)C=C)N(C)CCN(C)C)OC

> <PUBCHEM_OPENEYE_CAN_SMILES>
CN1C=C(C2=CC=CC=C21)C3=NC(=NC=C3)NC4=C(C=C(C(=C4)NC(=O)C=C)N(C)CCN(C)C)OC

> <PUBCHEM_OPENEYE_ISO_SMILES>
CN1C=C(C2=CC=CC=C21)C3=NC(=NC=C3)NC4=C(C=C(C(=C4)NC(=O)C=C)N(C)CCN(C)C)OC

> <PUBCHEM_CACTVS_TPSA>
87.6

> <PUBCHEM_MONOISOTOPIC_WEIGHT>
499.26957332

> <PUBCHEM_TOTAL_CHARGE>
0

> <PUBCHEM_HEAVY_ATOM_COUNT>
37

> <PUBCHEM_ATOM_DEF_STEREO_COUNT>
0

> <PUBCHEM_ATOM_UDEF_STEREO_COUNT>
0

> <PUBCHEM_BOND_DEF_STEREO_COUNT>
0

> <PUBCHEM_BOND_UDEF_STEREO_COUNT>
0

> <PUBCHEM_ISOTOPIC_ATOM_COUNT>
0

> <PUBCHEM_COMPONENT_COUNT>
1

> <PUBCHEM_CACTVS_TAUTO_COUNT>
-1

> <PUBCHEM_COORDINATE_TYPE>
1
5
255

> <PUBCHEM_BONDANNOTATIONS>
11  16  8
11  17  8
13  14  8
13  15  8
13  24  8
14  25  8
15  18  8
16  22  8
17  21  8
19  21  8
19  22  8
23  32  8
24  30  8
25  31  8
30  31  8
32  33  8
4  14  8
4  18  8
8  23  8
8  29  8
9  29  8
9  33  8

> <minimizedAffinity>
-6.44012

> <CNNscore>
0.0055033001

> <CNNaffinity>
3.3346652985

> <CNN_VS>
0.0183516648

> <CNNaffinity_variance>
3.0229790211

$$$$
71496458


 39 42  0  0  0  0  0  0  0  0999 V2000
   18.5916   -3.8302   10.5797 C   0  0  0  0  0  0  0  0  0  0  0  0
   18.1445   -4.6334   10.1862 C   0  0  0  0  0  0  0  0  0  0  0  0
   18.2049   -3.3893   11.3897 C   0  0  0  0  0  0  0  0  0  0  0  0
   16.9240   -4.5550   11.4126 C   0  0  0  0  0  0  0  0  0  0  0  0
   17.3711   -3.7517   11.8061 C   0  0  0  0  0  0  0  0  0  0  0  0
   17.3108   -4.9959   10.6026 C   0  0  0  0  0  0  0  0  0  0  0  0
   16.9439   -5.2229    8.6992 O   0  0  0  0  0  0  0  0  0  0  0  0
   18.5313   -5.0742    9.3762 N   0  0  0  0  0  0  0  0  0  0  0  0
   17.9309   -5.3690    8.6326 C   0  0  0  0  0  0  0  0  0  0  0  0
   19.1433   -5.1648    9.3348 H   0  0  0  0  0  0  0  0  0  0  0  0
   18.3177   -5.8098    7.8226 C   0  0  0  0  0  0  0  0  0  0  0  0
   17.8804   -5.6899    6.9314 C   0  0  0  0  0  0  0  0  0  0  0  0
   16.9844   -3.3109   12.6161 O   0  0  0  0  0  0  0  0  0  0  0  0
   17.2547   -2.3782   12.8548 C   0  0  0  0  0  0  0  0  0  0  0  0
   19.4255   -3.4677   10.1632 N   0  0  0  0  0  0  0  0  0  0  0  0
   20.3089   -3.8919   10.3623 C   0  0  0  0  0  0  0  0  0  0  0  0
   19.3758   -2.6812    9.5477 C   0  0  0  0  0  0  0  0  0  0  0  0
   20.2110   -2.1972    9.2865 C   0  0  0  0  0  0  0  0  0  0  0  0
   20.1654   -1.4324    8.6437 N   0  0  0  0  0  0  0  0  0  0  0  0
   19.9534   -0.5130    8.9748 C   0  0  0  0  0  0  0  0  0  0  0  0
   20.3318   -1.5872    7.6699 C   0  0  0  0  0  0  0  0  0  0  0  0
   16.0902   -4.9174   11.8290 N   0  0  0  0  0  0  0  0  0  0  0  0
   15.5490   -4.6277   11.7419 H   0  0  0  0  0  0  0  0  0  0  0  0
   15.9490   -5.6989   13.3684 N   0  0  0  0  0  0  0  0  0  0  0  0
   16.3484   -6.6250   11.9602 N   0  0  0  0  0  0  0  0  0  0  0  0
   15.9880   -6.5286   13.9252 C   0  0  0  0  0  0  0  0  0  0  0  0
   16.1292   -5.7471   12.3859 C   0  0  0  0  0  0  0  0  0  0  0  0
   16.2072   -7.4065   13.4996 C   0  0  0  0  0  0  0  0  0  0  0  0
   16.3873   -7.4547   12.5171 C   0  0  0  0  0  0  0  0  0  0  0  0
   16.0156   -6.3104   16.4946 N   0  0  0  0  0  0  0  0  0  0  0  0
   14.9246   -6.6066   15.3458 C   0  0  0  0  0  0  0  0  0  0  0  0
   15.0537   -6.5010   16.3318 C   0  0  0  0  0  0  0  0  0  0  0  0
   15.8079   -6.4803   14.9076 C   0  0  0  0  0  0  0  0  0  0  0  0
   16.4808   -6.2976   15.6161 C   0  0  0  0  0  0  0  0  0  0  0  0
   14.0155   -6.8045   14.9789 C   0  0  0  0  0  0  0  0  0  0  0  0
   14.2737   -6.5933   16.9509 C   0  0  0  0  0  0  0  0  0  0  0  0
   16.4412   -6.1580   17.3865 C   0  0  0  0  0  0  0  0  0  0  0  0
   13.2357   -6.8967   15.5979 C   0  0  0  0  0  0  0  0  0  0  0  0
   13.3648   -6.7912   16.5839 C   0  0  0  0  0  0  0  0  0  0  0  0
 13  5  1  0
 13 14  1  0
  7  9  2  0
 15 17  1  0
 15  1  1  0
 15 16  1  0
 30 32  1  0
 30 34  1  0
 30 37  1  0
 19 18  1  0
 19 20  1  0
 19 21  1  0
 22  4  1  0
 22 27  1  0
 22 23  1  0
  8  2  1  0
  8  9  1  0
  8 10  1  0
 24 26  2  0
 24 27  1  0
 25 27  2  0
 25 29  1  0
 17 18  1  0
  1  2  2  0
  1  3  1  0
 31 32  2  0
 31 33  1  0
 31 35  1  0
 32 36  1  0
 33 34  2  0
 33 26  1  0
  2  6  1  0
  3  5  2  0
  4  5  1  0
  4  6  2  0
 26 28  1  0
 35 38  2  0
 36 39  2  0
 38 39  1  0
 28 29  2  0
  9 11  1  0
 11 12  2  0
M  END
> <PUBCHEM_COMPOUND_CID>
71496458

> <PUBCHEM_COMPOUND_CANONICALIZED>
1

> <PUBCHEM_CACTVS_COMPLEXITY>
752

> <PUBCHEM_CACTVS_HBOND_ACCEPTOR>
7

> <PUBCHEM_CACTVS_HBOND_DONOR>
2

> <PUBCHEM_CACTVS_ROTATABLE_BOND>
10

> <PUBCHEM_CACTVS_SUBSKEYS>
AAADcfB7sAAAAAAAAAAAAAAAAAAAAWAAAAA8YIAAAAAAAFgB/AAAHgAQAAAADAzBngY/1vfMFACoAzV3dACCiCkxIqAJ2CA/fNiObuLE+duVNChu1BvY6Kew0MMOgECAAgQCECAAgQAECAQgQAAAAAAAAA==

> <PUBCHEM_IUPAC_OPENEYE_NAME>
N-[2-[2-(dimethylamino)ethyl-methyl-amino]-4-methoxy-5-[[4-(1-methylindol-3-yl)pyrimidin-2-yl]amino]phenyl]prop-2-enamide

> <PUBCHEM_IUPAC_CAS_NAME>
N-[2-[2-(dimethylamino)ethyl-methylamino]-4-methoxy-5-[[4-(1-methyl-3-indolyl)-2-pyrimidinyl]amino]phenyl]-2-propenamide

> <PUBCHEM_IUPAC_NAME_MARKUP>
<I>N</I>-[2-[2-(dimethylamino)ethyl-methylamino]-4-methoxy-5-[[4-(1-methylindol-3-yl)pyrimidin-2-yl]amino]phenyl]prop-2-enamide

> <PUBCHEM_IUPAC_NAME>
N-[2-[2-(dimethylamino)ethyl-methylamino]-4-methoxy-5-[[4-(1-methylindol-3-yl)pyrimidin-2-yl]amino]phenyl]prop-2-enamide

> <PUBCHEM_IUPAC_SYSTEMATIC_NAME>
N-[2-[2-(dimethylamino)ethyl-methyl-amino]-4-methoxy-5-[[4-(1-methylindol-3-yl)pyrimidin-2-yl]amino]phenyl]prop-2-enamide

> <PUBCHEM_IUPAC_TRADITIONAL_NAME>
N-[2-[2-(dimethylamino)ethyl-methyl-amino]-4-methoxy-5-[[4-(1-methylindol-3-yl)pyrimidin-2-yl]amino]phenyl]acrylamide

> <PUBCHEM_IUPAC_INCHI>
InChI=1S/C28H33N7O2/c1-7-27(36)30-22-16-23(26(37-6)17-25(22)34(4)15-14-33(2)3)32-28-29-13-12-21(31-28)20-18-35(5)24-11-9-8-10-19(20)24/h7-13,16-18H,1,14-15H2,2-6H3,(H,30,36)(H,29,31,32)

> <PUBCHEM_IUPAC_INCHIKEY>
DUYJMQONPNNFPI-UHFFFAOYSA-N

> <PUBCHEM_XLOGP3_AA>
3.7

> <PUBCHEM_EXACT_MASS>
499.26957332

> <PUBCHEM_MOLECULAR_FORMULA>
C28H33N7O2

> <PUBCHEM_MOLECULAR_WEIGHT>
499.6

> <PUBCHEM_REFERENCE_STANDARDIZATION>
Bypass - this structure was created from CID 78357807

> <PUBCHEM_SMILES>
CN1C=C(C2=CC=CC=C21)C3=NC(=NC=C3)NC4=C(C=C(C(=C4)NC(=O)C=C)N(C)CCN(C)C)OC

> <PUBCHEM_OPENEYE_CAN_SMILES>
CN1C=C(C2=CC=CC=C21)C3=NC(=NC=C3)NC4=C(C=C(C(=C4)NC(=O)C=C)N(C)CCN(C)C)OC

> <PUBCHEM_OPENEYE_ISO_SMILES>
CN1C=C(C2=CC=CC=C21)C3=NC(=NC=C3)NC4=C(C=C(C(=C4)NC(=O)C=C)N(C)CCN(C)C)OC

> <PUBCHEM_CACTVS_TPSA>
87.6

> <PUBCHEM_MONOISOTOPIC_WEIGHT>
499.26957332

> <PUBCHEM_TOTAL_CHARGE>
0

> <PUBCHEM_HEAVY_ATOM_COUNT>
37

> <PUBCHEM_ATOM_DEF_STEREO_COUNT>
0

> <PUBCHEM_ATOM_UDEF_STEREO_COUNT>
0

> <PUBCHEM_BOND_DEF_STEREO_COUNT>
0

> <PUBCHEM_BOND_UDEF_STEREO_COUNT>
0

> <PUBCHEM_ISOTOPIC_ATOM_COUNT>
0

> <PUBCHEM_COMPONENT_COUNT>
1

> <PUBCHEM_CACTVS_TAUTO_COUNT>
-1

> <PUBCHEM_COORDINATE_TYPE>
1
5
255

> <PUBCHEM_BONDANNOTATIONS>
11  16  8
11  17  8
13  14  8
13  15  8
13  24  8
14  25  8
15  18  8
16  22  8
17  21  8
19  21  8
19  22  8
23  32  8
24  30  8
25  31  8
30  31  8
32  33  8
4  14  8
4  18  8
8  23  8
8  29  8
9  29  8
9  33  8

> <minimizedAffinity>
-6.93988

> <CNNscore>
0.0053338176

> <CNNaffinity>
3.3531703949

> <CNN_VS>
0.0178851988

> <CNNaffinity_variance>
3.4700374603

$$$$
