71496458


 39 42  0  0  0  0  0  0  0  0999 V2000
   -9.8553    1.6224   -9.6584 C   0  0  0  0  0  0  0  0  0  0  0  0
  -10.2345    1.6101   -8.7332 C   0  0  0  0  0  0  0  0  0  0  0  0
   -9.4964    2.4740  -10.0404 C   0  0  0  0  0  0  0  0  0  0  0  0
   -9.8959    3.3010   -8.5720 C   0  0  0  0  0  0  0  0  0  0  0  0
   -9.5167    3.3133   -9.4973 C   0  0  0  0  0  0  0  0  0  0  0  0
  -10.2548    2.4494   -8.1900 C   0  0  0  0  0  0  0  0  0  0  0  0
  -11.9111    1.6316   -7.6430 O   0  0  0  0  0  0  0  0  0  0  0  0
  -10.5934    0.7585   -8.3512 N   0  0  0  0  0  0  0  0  0  0  0  0
  -11.4318    0.7692   -7.8061 C   0  0  0  0  0  0  0  0  0  0  0  0
  -10.2963    0.2238   -8.4523 H   0  0  0  0  0  0  0  0  0  0  0  0
  -11.7907   -0.0824   -7.4241 C   0  0  0  0  0  0  0  0  0  0  0  0
  -12.7185   -0.1116   -7.0522 C   0  0  0  0  0  0  0  0  0  0  0  0
   -9.1578    4.1649   -9.8793 O   0  0  0  0  0  0  0  0  0  0  0  0
   -8.6399    4.1501  -10.7346 C   0  0  0  0  0  0  0  0  0  0  0  0
   -9.8350    0.7829  -10.2016 N   0  0  0  0  0  0  0  0  0  0  0  0
   -9.1574    0.0749  -10.0027 C   0  0  0  0  0  0  0  0  0  0  0  0
  -10.4923    0.6516  -10.9438 C   0  0  0  0  0  0  0  0  0  0  0  0
  -10.4092   -0.1383  -11.5512 C   0  0  0  0  0  0  0  0  0  0  0  0
  -11.0261   -0.2355  -12.3323 N   0  0  0  0  0  0  0  0  0  0  0  0
  -11.6231   -1.0347  -12.4015 C   0  0  0  0  0  0  0  0  0  0  0  0
  -11.0460    0.4666  -13.0441 C   0  0  0  0  0  0  0  0  0  0  0  0
   -9.9162    4.1404   -8.0288 N   0  0  0  0  0  0  0  0  0  0  0  0
  -10.0943    4.6741   -8.2895 H   0  0  0  0  0  0  0  0  0  0  0  0
   -9.9156    4.8661   -6.4561 N   0  0  0  0  0  0  0  0  0  0  0  0
   -9.1161    3.3509   -6.7112 N   0  0  0  0  0  0  0  0  0  0  0  0
   -9.6487    4.8448   -5.4926 C   0  0  0  0  0  0  0  0  0  0  0  0
   -9.6494    4.1192   -7.0653 C   0  0  0  0  0  0  0  0  0  0  0  0
   -9.1155    4.0766   -5.1384 C   0  0  0  0  0  0  0  0  0  0  0  0
   -8.8493    3.3296   -5.7476 C   0  0  0  0  0  0  0  0  0  0  0  0
  -10.0296    6.5463   -3.5926 N   0  0  0  0  0  0  0  0  0  0  0  0
  -10.5415    6.3308   -5.1057 C   0  0  0  0  0  0  0  0  0  0  0  0
  -10.6128    6.9238   -4.3037 C   0  0  0  0  0  0  0  0  0  0  0  0
   -9.9150    5.5918   -4.8835 C   0  0  0  0  0  0  0  0  0  0  0  0
   -9.5992    5.7246   -3.9503 C   0  0  0  0  0  0  0  0  0  0  0  0
  -11.0595    6.5454   -5.9338 C   0  0  0  0  0  0  0  0  0  0  0  0
  -11.2020    7.7314   -4.3297 C   0  0  0  0  0  0  0  0  0  0  0  0
   -9.8988    6.9266   -2.6771 C   0  0  0  0  0  0  0  0  0  0  0  0
  -11.6487    7.3529   -5.9598 C   0  0  0  0  0  0  0  0  0  0  0  0
  -11.7200    7.9459   -5.1578 C   0  0  0  0  0  0  0  0  0  0  0  0
 13  5  1  0
 13 14  1  0
  7  9  2  0
 15 17  1  0
 15  1  1  0
 15 16  1  0
 30 32  1  0
 30 34  1  0
 30 37  1  0
 19 18  1  0
 19 20  1  0
 19 21  1  0
 22  4  1  0
 22 27  1  0
 22 23  1  0
  8  2  1  0
  8  9  1  0
  8 10  1  0
 24 26  2  0
 24 27  1  0
 25 27  2  0
 25 29  1  0
 17 18  1  0
  1  2  2  0
  1  3  1  0
 31 32  2  0
 31 33  1  0
 31 35  1  0
 32 36  1  0
 33 34  2  0
 33 26  1  0
  2  6  1  0
  3  5  2  0
  4  5  1  0
  4  6  2  0
 26 28  1  0
 35 38  2  0
 36 39  2  0
 38 39  1  0
 28 29  2  0
  9 11  1  0
 11 12  2  0
M  END
> <PUBCHEM_COMPOUND_CID>
71496458

> <PUBCHEM_COMPOUND_CANONICALIZED>
1

> <PUBCHEM_CACTVS_COMPLEXITY>
752

> <PUBCHEM_CACTVS_HBOND_ACCEPTOR>
7

> <PUBCHEM_CACTVS_HBOND_DONOR>
2

> <PUBCHEM_CACTVS_ROTATABLE_BOND>
10

> <PUBCHEM_CACTVS_SUBSKEYS>
AAADcfB7sAAAAAAAAAAAAAAAAAAAAWAAAAA8YIAAAAAAAFgB/AAAHgAQAAAADAzBngY/1vfMFACoAzV3dACCiCkxIqAJ2CA/fNiObuLE+duVNChu1BvY6Kew0MMOgECAAgQCECAAgQAECAQgQAAAAAAAAA==

> <PUBCHEM_IUPAC_OPENEYE_NAME>
N-[2-[2-(dimethylamino)ethyl-methyl-amino]-4-methoxy-5-[[4-(1-methylindol-3-yl)pyrimidin-2-yl]amino]phenyl]prop-2-enamide

> <PUBCHEM_IUPAC_CAS_NAME>
N-[2-[2-(dimethylamino)ethyl-methylamino]-4-methoxy-5-[[4-(1-methyl-3-indolyl)-2-pyrimidinyl]amino]phenyl]-2-propenamide

> <PUBCHEM_IUPAC_NAME_MARKUP>
<I>N</I>-[2-[2-(dimethylamino)ethyl-methylamino]-4-methoxy-5-[[4-(1-methylindol-3-yl)pyrimidin-2-yl]amino]phenyl]prop-2-enamide

> <PUBCHEM_IUPAC_NAME>
N-[2-[2-(dimethylamino)ethyl-methylamino]-4-methoxy-5-[[4-(1-methylindol-3-yl)pyrimidin-2-yl]amino]phenyl]prop-2-enamide

> <PUBCHEM_IUPAC_SYSTEMATIC_NAME>
N-[2-[2-(dimethylamino)ethyl-methyl-amino]-4-methoxy-5-[[4-(1-methylindol-3-yl)pyrimidin-2-yl]amino]phenyl]prop-2-enamide

> <PUBCHEM_IUPAC_TRADITIONAL_NAME>
N-[2-[2-(dimethylamino)ethyl-methyl-amino]-4-methoxy-5-[[4-(1-methylindol-3-yl)pyrimidin-2-yl]amino]phenyl]acrylamide

> <PUBCHEM_IUPAC_INCHI>
InChI=1S/C28H33N7O2/c1-7-27(36)30-22-16-23(26(37-6)17-25(22)34(4)15-14-33(2)3)32-28-29-13-12-21(31-28)20-18-35(5)24-11-9-8-10-19(20)24/h7-13,16-18H,1,14-15H2,2-6H3,(H,30,36)(H,29,31,32)

> <PUBCHEM_IUPAC_INCHIKEY>
DUYJMQONPNNFPI-UHFFFAOYSA-N

> <PUBCHEM_XLOGP3_AA>
3.7

> <PUBCHEM_EXACT_MASS>
499.26957332

> <PUBCHEM_MOLECULAR_FORMULA>
C28H33N7O2

> <PUBCHEM_MOLECULAR_WEIGHT>
499.6

> <PUBCHEM_REFERENCE_STANDARDIZATION>
Bypass - this structure was created from CID 78357807

> <PUBCHEM_SMILES>
CN1C=C(C2=CC=CC=C21)C3=NC(=NC=C3)NC4=C(C=C(C(=C4)NC(=O)C=C)N(C)CCN(C)C)OC

> <PUBCHEM_OPENEYE_CAN_SMILES>
CN1C=C(C2=CC=CC=C21)C3=NC(=NC=C3)NC4=C(C=C(C(=C4)NC(=O)C=C)N(C)CCN(C)C)OC

> <PUBCHEM_OPENEYE_ISO_SMILES>
CN1C=C(C2=CC=CC=C21)C3=NC(=NC=C3)NC4=C(C=C(C(=C4)NC(=O)C=C)N(C)CCN(C)C)OC

> <PUBCHEM_CACTVS_TPSA>
87.6

> <PUBCHEM_MONOISOTOPIC_WEIGHT>
499.26957332

> <PUBCHEM_TOTAL_CHARGE>
0

> <PUBCHEM_HEAVY_ATOM_COUNT>
37

> <PUBCHEM_ATOM_DEF_STEREO_COUNT>
0

> <PUBCHEM_ATOM_UDEF_STEREO_COUNT>
0

> <PUBCHEM_BOND_DEF_STEREO_COUNT>
0

> <PUBCHEM_BOND_UDEF_STEREO_COUNT>
0

> <PUBCHEM_ISOTOPIC_ATOM_COUNT>
0

> <PUBCHEM_COMPONENT_COUNT>
1

> <PUBCHEM_CACTVS_TAUTO_COUNT>
-1

> <PUBCHEM_COORDINATE_TYPE>
1
5
255

> <PUBCHEM_BONDANNOTATIONS>
11  16  8
11  17  8
13  14  8
13  15  8
13  24  8
14  25  8
15  18  8
16  22  8
17  21  8
19  21  8
19  22  8
23  32  8
24  30  8
25  31  8
30  31  8
32  33  8
4  14  8
4  18  8
8  23  8
8  29  8
9  29  8
9  33  8

> <minimizedAffinity>
-9.40306

> <CNNscore>
0.0196570884

> <CNNaffinity>
4.4499430656

> <CNN_VS>
0.0874729231

> <CNNaffinity_variance>
4.5244536400

$$$$
71496458


 39 42  0  0  0  0  0  0  0  0999 V2000
  -10.5813    1.2441   -9.2656 C   0  0  0  0  0  0  0  0  0  0  0  0
  -10.1418    2.1161   -9.0503 C   0  0  0  0  0  0  0  0  0  0  0  0
  -11.1381    0.7812   -8.5759 C   0  0  0  0  0  0  0  0  0  0  0  0
  -10.8156    2.0623   -7.4557 C   0  0  0  0  0  0  0  0  0  0  0  0
  -11.2553    1.1903   -7.6709 C   0  0  0  0  0  0  0  0  0  0  0  0
  -10.2589    2.5253   -8.1455 C   0  0  0  0  0  0  0  0  0  0  0  0
  -10.2386    4.1044   -9.2438 O   0  0  0  0  0  0  0  0  0  0  0  0
   -9.5850    2.5790   -9.7401 N   0  0  0  0  0  0  0  0  0  0  0  0
   -9.6334    3.5733   -9.8369 C   0  0  0  0  0  0  0  0  0  0  0  0
   -9.2098    2.2497  -10.1079 H   0  0  0  0  0  0  0  0  0  0  0  0
   -9.0767    4.0361  -10.5267 C   0  0  0  0  0  0  0  0  0  0  0  0
   -8.9877    5.0320  -10.5113 C   0  0  0  0  0  0  0  0  0  0  0  0
  -11.8120    0.7273   -6.9812 O   0  0  0  0  0  0  0  0  0  0  0  0
  -12.1737   -0.1872   -7.1621 C   0  0  0  0  0  0  0  0  0  0  0  0
  -10.4642    0.8350  -10.1706 N   0  0  0  0  0  0  0  0  0  0  0  0
  -10.8968    1.2543  -10.9687 C   0  0  0  0  0  0  0  0  0  0  0  0
   -9.9143    0.0065  -10.2774 C   0  0  0  0  0  0  0  0  0  0  0  0
   -9.8548   -0.4425  -11.1689 C   0  0  0  0  0  0  0  0  0  0  0  0
   -9.7217   -1.4322  -11.2223 N   0  0  0  0  0  0  0  0  0  0  0  0
   -9.8624   -1.9094  -12.0898 C   0  0  0  0  0  0  0  0  0  0  0  0
   -9.4479   -1.9445  -10.4084 C   0  0  0  0  0  0  0  0  0  0  0  0
  -10.9328    2.4714   -6.5508 N   0  0  0  0  0  0  0  0  0  0  0  0
  -11.3989    2.2877   -6.1855 H   0  0  0  0  0  0  0  0  0  0  0  0
  -10.6453    4.0700   -5.9490 N   0  0  0  0  0  0  0  0  0  0  0  0
   -9.3165    2.9888   -6.2048 N   0  0  0  0  0  0  0  0  0  0  0  0
  -10.0107    4.7753   -5.6331 C   0  0  0  0  0  0  0  0  0  0  0  0
  -10.2982    3.1768   -6.2348 C   0  0  0  0  0  0  0  0  0  0  0  0
   -9.0290    4.5873   -5.6030 C   0  0  0  0  0  0  0  0  0  0  0  0
   -8.6819    3.6941   -5.8888 C   0  0  0  0  0  0  0  0  0  0  0  0
  -11.0840    7.1046   -5.3649 N   0  0  0  0  0  0  0  0  0  0  0  0
  -10.2464    6.0773   -4.4481 C   0  0  0  0  0  0  0  0  0  0  0  0
  -10.6976    6.9696   -4.4590 C   0  0  0  0  0  0  0  0  0  0  0  0
  -10.3578    5.6684   -5.3472 C   0  0  0  0  0  0  0  0  0  0  0  0
  -10.8745    6.3020   -5.9128 C   0  0  0  0  0  0  0  0  0  0  0  0
   -9.7929    5.7565   -3.6164 C   0  0  0  0  0  0  0  0  0  0  0  0
  -10.6953    7.5412   -3.6384 C   0  0  0  0  0  0  0  0  0  0  0  0
  -11.5946    7.9079   -5.6716 C   0  0  0  0  0  0  0  0  0  0  0  0
   -9.7907    6.3280   -2.7959 C   0  0  0  0  0  0  0  0  0  0  0  0
  -10.2419    7.2204   -2.8069 C   0  0  0  0  0  0  0  0  0  0  0  0
 13  5  1  0
 13 14  1  0
  7  9  2  0
 15 17  1  0
 15  1  1  0
 15 16  1  0
 30 32  1  0
 30 34  1  0
 30 37  1  0
 19 18  1  0
 19 20  1  0
 19 21  1  0
 22  4  1  0
 22 27  1  0
 22 23  1  0
  8  2  1  0
  8  9  1  0
  8 10  1  0
 24 26  2  0
 24 27  1  0
 25 27  2  0
 25 29  1  0
 17 18  1  0
  1  2  2  0
  1  3  1  0
 31 32  2  0
 31 33  1  0
 31 35  1  0
 32 36  1  0
 33 34  2  0
 33 26  1  0
  2  6  1  0
  3  5  2  0
  4  5  1  0
  4  6  2  0
 26 28  1  0
 35 38  2  0
 36 39  2  0
 38 39  1  0
 28 29  2  0
  9 11  1  0
 11 12  2  0
M  END
> <PUBCHEM_COMPOUND_CID>
71496458

> <PUBCHEM_COMPOUND_CANONICALIZED>
1

> <PUBCHEM_CACTVS_COMPLEXITY>
752

> <PUBCHEM_CACTVS_HBOND_ACCEPTOR>
7

> <PUBCHEM_CACTVS_HBOND_DONOR>
2

> <PUBCHEM_CACTVS_ROTATABLE_BOND>
10

> <PUBCHEM_CACTVS_SUBSKEYS>
AAADcfB7sAAAAAAAAAAAAAAAAAAAAWAAAAA8YIAAAAAAAFgB/AAAHgAQAAAADAzBngY/1vfMFACoAzV3dACCiCkxIqAJ2CA/fNiObuLE+duVNChu1BvY6Kew0MMOgECAAgQCECAAgQAECAQgQAAAAAAAAA==

> <PUBCHEM_IUPAC_OPENEYE_NAME>
N-[2-[2-(dimethylamino)ethyl-methyl-amino]-4-methoxy-5-[[4-(1-methylindol-3-yl)pyrimidin-2-yl]amino]phenyl]prop-2-enamide

> <PUBCHEM_IUPAC_CAS_NAME>
N-[2-[2-(dimethylamino)ethyl-methylamino]-4-methoxy-5-[[4-(1-methyl-3-indolyl)-2-pyrimidinyl]amino]phenyl]-2-propenamide

> <PUBCHEM_IUPAC_NAME_MARKUP>
<I>N</I>-[2-[2-(dimethylamino)ethyl-methylamino]-4-methoxy-5-[[4-(1-methylindol-3-yl)pyrimidin-2-yl]amino]phenyl]prop-2-enamide

> <PUBCHEM_IUPAC_NAME>
N-[2-[2-(dimethylamino)ethyl-methylamino]-4-methoxy-5-[[4-(1-methylindol-3-yl)pyrimidin-2-yl]amino]phenyl]prop-2-enamide

> <PUBCHEM_IUPAC_SYSTEMATIC_NAME>
N-[2-[2-(dimethylamino)ethyl-methyl-amino]-4-methoxy-5-[[4-(1-methylindol-3-yl)pyrimidin-2-yl]amino]phenyl]prop-2-enamide

> <PUBCHEM_IUPAC_TRADITIONAL_NAME>
N-[2-[2-(dimethylamino)ethyl-methyl-amino]-4-methoxy-5-[[4-(1-methylindol-3-yl)pyrimidin-2-yl]amino]phenyl]acrylamide

> <PUBCHEM_IUPAC_INCHI>
InChI=1S/C28H33N7O2/c1-7-27(36)30-22-16-23(26(37-6)17-25(22)34(4)15-14-33(2)3)32-28-29-13-12-21(31-28)20-18-35(5)24-11-9-8-10-19(20)24/h7-13,16-18H,1,14-15H2,2-6H3,(H,30,36)(H,29,31,32)

> <PUBCHEM_IUPAC_INCHIKEY>
DUYJMQONPNNFPI-UHFFFAOYSA-N

> <PUBCHEM_XLOGP3_AA>
3.7

> <PUBCHEM_EXACT_MASS>
499.26957332

> <PUBCHEM_MOLECULAR_FORMULA>
C28H33N7O2

> <PUBCHEM_MOLECULAR_WEIGHT>
499.6

> <PUBCHEM_REFERENCE_STANDARDIZATION>
Bypass - this structure was created from CID 78357807

> <PUBCHEM_SMILES>
CN1C=C(C2=CC=CC=C21)C3=NC(=NC=C3)NC4=C(C=C(C(=C4)NC(=O)C=C)N(C)CCN(C)C)OC

> <PUBCHEM_OPENEYE_CAN_SMILES>
CN1C=C(C2=CC=CC=C21)C3=NC(=NC=C3)NC4=C(C=C(C(=C4)NC(=O)C=C)N(C)CCN(C)C)OC

> <PUBCHEM_OPENEYE_ISO_SMILES>
CN1C=C(C2=CC=CC=C21)C3=NC(=NC=C3)NC4=C(C=C(C(=C4)NC(=O)C=C)N(C)CCN(C)C)OC

> <PUBCHEM_CACTVS_TPSA>
87.6

> <PUBCHEM_MONOISOTOPIC_WEIGHT>
499.26957332

> <PUBCHEM_TOTAL_CHARGE>
0

> <PUBCHEM_HEAVY_ATOM_COUNT>
37

> <PUBCHEM_ATOM_DEF_STEREO_COUNT>
0

> <PUBCHEM_ATOM_UDEF_STEREO_COUNT>
0

> <PUBCHEM_BOND_DEF_STEREO_COUNT>
0

> <PUBCHEM_BOND_UDEF_STEREO_COUNT>
0

> <PUBCHEM_ISOTOPIC_ATOM_COUNT>
0

> <PUBCHEM_COMPONENT_COUNT>
1

> <PUBCHEM_CACTVS_TAUTO_COUNT>
-1

> <PUBCHEM_COORDINATE_TYPE>
1
5
255

> <PUBCHEM_BONDANNOTATIONS>
11  16  8
11  17  8
13  14  8
13  15  8
13  24  8
14  25  8
15  18  8
16  22  8
17  21  8
19  21  8
19  22  8
23  32  8
24  30  8
25  31  8
30  31  8
32  33  8
4  14  8
4  18  8
8  23  8
8  29  8
9  29  8
9  33  8

> <minimizedAffinity>
-9.66420

> <CNNscore>
0.0160979368

> <CNNaffinity>
4.2118468285

> <CNN_VS>
0.0678020418

> <CNNaffinity_variance>
5.1585502625

$$$$
71496458


 39 42  0  0  0  0  0  0  0  0999 V2000
  -10.5341    1.8431   -7.5282 C   0  0  0  0  0  0  0  0  0  0  0  0
  -10.1814    1.4415   -6.6831 C   0  0  0  0  0  0  0  0  0  0  0  0
  -10.3150    2.7906   -7.7609 C   0  0  0  0  0  0  0  0  0  0  0  0
   -9.3905    2.9348   -6.3034 C   0  0  0  0  0  0  0  0  0  0  0  0
   -9.7432    3.3365   -7.1486 C   0  0  0  0  0  0  0  0  0  0  0  0
   -9.6096    1.9873   -6.0707 C   0  0  0  0  0  0  0  0  0  0  0  0
  -10.7607    0.9762   -4.8262 O   0  0  0  0  0  0  0  0  0  0  0  0
  -10.4005    0.4939   -6.4504 N   0  0  0  0  0  0  0  0  0  0  0  0
  -10.6902    0.2613   -5.5219 C   0  0  0  0  0  0  0  0  0  0  0  0
  -10.3569    0.0506   -6.8817 H   0  0  0  0  0  0  0  0  0  0  0  0
  -10.9094   -0.6863   -5.2892 C   0  0  0  0  0  0  0  0  0  0  0  0
  -10.5335   -1.0968   -4.4585 C   0  0  0  0  0  0  0  0  0  0  0  0
   -9.5241    4.2840   -7.3813 O   0  0  0  0  0  0  0  0  0  0  0  0
   -9.8733    4.6843   -8.2285 C   0  0  0  0  0  0  0  0  0  0  0  0
  -11.1060    1.2972   -8.1406 N   0  0  0  0  0  0  0  0  0  0  0  0
  -12.0859    1.2077   -7.9624 C   0  0  0  0  0  0  0  0  0  0  0  0
  -10.6979    0.8407   -8.9313 C   0  0  0  0  0  0  0  0  0  0  0  0
  -11.2367    0.1896   -9.4658 C   0  0  0  0  0  0  0  0  0  0  0  0
  -10.8199   -0.2882  -10.2392 N   0  0  0  0  0  0  0  0  0  0  0  0
   -9.9340   -0.7389  -10.1299 C   0  0  0  0  0  0  0  0  0  0  0  0
  -11.2891   -0.3152  -11.1219 C   0  0  0  0  0  0  0  0  0  0  0  0
   -8.8186    3.4807   -5.6911 N   0  0  0  0  0  0  0  0  0  0  0  0
   -8.2446    3.6401   -5.8630 H   0  0  0  0  0  0  0  0  0  0  0  0
   -9.5045    4.7043   -4.6749 N   0  0  0  0  0  0  0  0  0  0  0  0
   -9.1942    3.1235   -4.0384 N   0  0  0  0  0  0  0  0  0  0  0  0
   -9.8583    4.9931   -3.7853 C   0  0  0  0  0  0  0  0  0  0  0  0
   -9.1725    3.7696   -4.8015 C   0  0  0  0  0  0  0  0  0  0  0  0
   -9.8801    4.3471   -3.0223 C   0  0  0  0  0  0  0  0  0  0  0  0
   -9.5481    3.4124   -3.1488 C   0  0  0  0  0  0  0  0  0  0  0  0
  -10.5072    7.3632   -3.0034 N   0  0  0  0  0  0  0  0  0  0  0  0
  -10.6916    6.4646   -4.3287 C   0  0  0  0  0  0  0  0  0  0  0  0
  -10.8885    7.3565   -3.9214 C   0  0  0  0  0  0  0  0  0  0  0  0
  -10.1903    5.9278   -3.6588 C   0  0  0  0  0  0  0  0  0  0  0  0
  -10.0766    6.4820   -2.8415 C   0  0  0  0  0  0  0  0  0  0  0  0
  -10.9971    6.2613   -5.2590 C   0  0  0  0  0  0  0  0  0  0  0  0
  -11.3909    8.0450   -4.4445 C   0  0  0  0  0  0  0  0  0  0  0  0
  -10.5495    8.1239   -2.3557 C   0  0  0  0  0  0  0  0  0  0  0  0
  -11.4995    6.9499   -5.7820 C   0  0  0  0  0  0  0  0  0  0  0  0
  -11.6963    7.8417   -5.3747 C   0  0  0  0  0  0  0  0  0  0  0  0
 13  5  1  0
 13 14  1  0
  7  9  2  0
 15 17  1  0
 15  1  1  0
 15 16  1  0
 30 32  1  0
 30 34  1  0
 30 37  1  0
 19 18  1  0
 19 20  1  0
 19 21  1  0
 22  4  1  0
 22 27  1  0
 22 23  1  0
  8  2  1  0
  8  9  1  0
  8 10  1  0
 24 26  2  0
 24 27  1  0
 25 27  2  0
 25 29  1  0
 17 18  1  0
  1  2  2  0
  1  3  1  0
 31 32  2  0
 31 33  1  0
 31 35  1  0
 32 36  1  0
 33 34  2  0
 33 26  1  0
  2  6  1  0
  3  5  2  0
  4  5  1  0
  4  6  2  0
 26 28  1  0
 35 38  2  0
 36 39  2  0
 38 39  1  0
 28 29  2  0
  9 11  1  0
 11 12  2  0
M  END
> <PUBCHEM_COMPOUND_CID>
71496458

> <PUBCHEM_COMPOUND_CANONICALIZED>
1

> <PUBCHEM_CACTVS_COMPLEXITY>
752

> <PUBCHEM_CACTVS_HBOND_ACCEPTOR>
7

> <PUBCHEM_CACTVS_HBOND_DONOR>
2

> <PUBCHEM_CACTVS_ROTATABLE_BOND>
10

> <PUBCHEM_CACTVS_SUBSKEYS>
AAADcfB7sAAAAAAAAAAAAAAAAAAAAWAAAAA8YIAAAAAAAFgB/AAAHgAQAAAADAzBngY/1vfMFACoAzV3dACCiCkxIqAJ2CA/fNiObuLE+duVNChu1BvY6Kew0MMOgECAAgQCECAAgQAECAQgQAAAAAAAAA==

> <PUBCHEM_IUPAC_OPENEYE_NAME>
N-[2-[2-(dimethylamino)ethyl-methyl-amino]-4-methoxy-5-[[4-(1-methylindol-3-yl)pyrimidin-2-yl]amino]phenyl]prop-2-enamide

> <PUBCHEM_IUPAC_CAS_NAME>
N-[2-[2-(dimethylamino)ethyl-methylamino]-4-methoxy-5-[[4-(1-methyl-3-indolyl)-2-pyrimidinyl]amino]phenyl]-2-propenamide

> <PUBCHEM_IUPAC_NAME_MARKUP>
<I>N</I>-[2-[2-(dimethylamino)ethyl-methylamino]-4-methoxy-5-[[4-(1-methylindol-3-yl)pyrimidin-2-yl]amino]phenyl]prop-2-enamide

> <PUBCHEM_IUPAC_NAME>
N-[2-[2-(dimethylamino)ethyl-methylamino]-4-methoxy-5-[[4-(1-methylindol-3-yl)pyrimidin-2-yl]amino]phenyl]prop-2-enamide

> <PUBCHEM_IUPAC_SYSTEMATIC_NAME>
N-[2-[2-(dimethylamino)ethyl-methyl-amino]-4-methoxy-5-[[4-(1-methylindol-3-yl)pyrimidin-2-yl]amino]phenyl]prop-2-enamide

> <PUBCHEM_IUPAC_TRADITIONAL_NAME>
N-[2-[2-(dimethylamino)ethyl-methyl-amino]-4-methoxy-5-[[4-(1-methylindol-3-yl)pyrimidin-2-yl]amino]phenyl]acrylamide

> <PUBCHEM_IUPAC_INCHI>
InChI=1S/C28H33N7O2/c1-7-27(36)30-22-16-23(26(37-6)17-25(22)34(4)15-14-33(2)3)32-28-29-13-12-21(31-28)20-18-35(5)24-11-9-8-10-19(20)24/h7-13,16-18H,1,14-15H2,2-6H3,(H,30,36)(H,29,31,32)

> <PUBCHEM_IUPAC_INCHIKEY>
DUYJMQONPNNFPI-UHFFFAOYSA-N

> <PUBCHEM_XLOGP3_AA>
3.7

> <PUBCHEM_EXACT_MASS>
499.26957332

> <PUBCHEM_MOLECULAR_FORMULA>
C28H33N7O2

> <PUBCHEM_MOLECULAR_WEIGHT>
499.6

> <PUBCHEM_REFERENCE_STANDARDIZATION>
Bypass - this structure was created from CID 78357807

> <PUBCHEM_SMILES>
CN1C=C(C2=CC=CC=C21)C3=NC(=NC=C3)NC4=C(C=C(C(=C4)NC(=O)C=C)N(C)CCN(C)C)OC

> <PUBCHEM_OPENEYE_CAN_SMILES>
CN1C=C(C2=CC=CC=C21)C3=NC(=NC=C3)NC4=C(C=C(C(=C4)NC(=O)C=C)N(C)CCN(C)C)OC

> <PUBCHEM_OPENEYE_ISO_SMILES>
CN1C=C(C2=CC=CC=C21)C3=NC(=NC=C3)NC4=C(C=C(C(=C4)NC(=O)C=C)N(C)CCN(C)C)OC

> <PUBCHEM_CACTVS_TPSA>
87.6

> <PUBCHEM_MONOISOTOPIC_WEIGHT>
499.26957332

> <PUBCHEM_TOTAL_CHARGE>
0

> <PUBCHEM_HEAVY_ATOM_COUNT>
37

> <PUBCHEM_ATOM_DEF_STEREO_COUNT>
0

> <PUBCHEM_ATOM_UDEF_STEREO_COUNT>
0

> <PUBCHEM_BOND_DEF_STEREO_COUNT>
0

> <PUBCHEM_BOND_UDEF_STEREO_COUNT>
0

> <PUBCHEM_ISOTOPIC_ATOM_COUNT>
0

> <PUBCHEM_COMPONENT_COUNT>
1

> <PUBCHEM_CACTVS_TAUTO_COUNT>
-1

> <PUBCHEM_COORDINATE_TYPE>
1
5
255

> <PUBCHEM_BONDANNOTATIONS>
11  16  8
11  17  8
13  14  8
13  15  8
13  24  8
14  25  8
15  18  8
16  22  8
17  21  8
19  21  8
19  22  8
23  32  8
24  30  8
25  31  8
30  31  8
32  33  8
4  14  8
4  18  8
8  23  8
8  29  8
9  29  8
9  33  8

> <minimizedAffinity>
-9.72071

> <CNNscore>
0.0156669207

> <CNNaffinity>
4.6711473465

> <CNN_VS>
0.0731824934

> <CNNaffinity_variance>
3.6495037079

$$$$
71496458


 39 42  0  0  0  0  0  0  0  0999 V2000
   -9.7768    0.9754   -6.8851 C   0  0  0  0  0  0  0  0  0  0  0  0
  -10.2820    1.5488   -6.2402 C   0  0  0  0  0  0  0  0  0  0  0  0
   -9.5505    1.3252   -7.7941 C   0  0  0  0  0  0  0  0  0  0  0  0
  -10.3345    2.8220   -7.4132 C   0  0  0  0  0  0  0  0  0  0  0  0
   -9.8293    2.2485   -8.0582 C   0  0  0  0  0  0  0  0  0  0  0  0
  -10.5608    2.4721   -6.5042 C   0  0  0  0  0  0  0  0  0  0  0  0
  -10.8135    2.8142   -4.7854 O   0  0  0  0  0  0  0  0  0  0  0  0
  -10.5083    1.1989   -5.3311 N   0  0  0  0  0  0  0  0  0  0  0  0
  -10.7741    1.8317   -4.6037 C   0  0  0  0  0  0  0  0  0  0  0  0
  -10.4839    0.5897   -5.2184 H   0  0  0  0  0  0  0  0  0  0  0  0
  -11.0004    1.4817   -3.6947 C   0  0  0  0  0  0  0  0  0  0  0  0
  -10.8245    2.0420   -2.8853 C   0  0  0  0  0  0  0  0  0  0  0  0
   -9.6029    2.5984   -8.9673 O   0  0  0  0  0  0  0  0  0  0  0  0
   -9.4170    1.9620   -9.7159 C   0  0  0  0  0  0  0  0  0  0  0  0
   -9.4980    0.0520   -6.6209 N   0  0  0  0  0  0  0  0  0  0  0  0
   -8.6258   -0.0925   -6.1536 C   0  0  0  0  0  0  0  0  0  0  0  0
  -10.0914   -0.7269   -6.8242 C   0  0  0  0  0  0  0  0  0  0  0  0
   -9.7901   -1.6552   -6.6063 C   0  0  0  0  0  0  0  0  0  0  0  0
  -10.3864   -2.4335   -6.8033 N   0  0  0  0  0  0  0  0  0  0  0  0
  -11.1190   -2.6756   -6.1672 C   0  0  0  0  0  0  0  0  0  0  0  0
  -10.2500   -2.9696   -7.6364 C   0  0  0  0  0  0  0  0  0  0  0  0
  -10.6133    3.7453   -7.6774 N   0  0  0  0  0  0  0  0  0  0  0  0
  -11.1260    3.8294   -8.0157 H   0  0  0  0  0  0  0  0  0  0  0  0
  -10.1655    4.9085   -6.4746 N   0  0  0  0  0  0  0  0  0  0  0  0
   -9.4167    4.9450   -8.0361 N   0  0  0  0  0  0  0  0  0  0  0  0
   -9.6173    5.6961   -6.1933 C   0  0  0  0  0  0  0  0  0  0  0  0
  -10.0652    4.5329   -7.3960 C   0  0  0  0  0  0  0  0  0  0  0  0
   -8.9689    6.1082   -6.8334 C   0  0  0  0  0  0  0  0  0  0  0  0
   -8.8686    5.7327   -7.7547 C   0  0  0  0  0  0  0  0  0  0  0  0
   -9.5147    6.3368   -3.6975 N   0  0  0  0  0  0  0  0  0  0  0  0
  -10.3502    6.7885   -4.9997 C   0  0  0  0  0  0  0  0  0  0  0  0
  -10.2241    6.9533   -4.0215 C   0  0  0  0  0  0  0  0  0  0  0  0
   -9.7177    6.0716   -5.2720 C   0  0  0  0  0  0  0  0  0  0  0  0
   -9.2024    5.7930   -4.4689 C   0  0  0  0  0  0  0  0  0  0  0  0
  -11.0274    7.3164   -5.5125 C   0  0  0  0  0  0  0  0  0  0  0  0
  -10.7751    7.6460   -3.5560 C   0  0  0  0  0  0  0  0  0  0  0  0
   -9.1746    6.2746   -2.7592 C   0  0  0  0  0  0  0  0  0  0  0  0
  -11.5784    8.0090   -5.0470 C   0  0  0  0  0  0  0  0  0  0  0  0
  -11.4522    8.1738   -4.0688 C   0  0  0  0  0  0  0  0  0  0  0  0
 13  5  1  0
 13 14  1  0
  7  9  2  0
 15 17  1  0
 15  1  1  0
 15 16  1  0
 30 32  1  0
 30 34  1  0
 30 37  1  0
 19 18  1  0
 19 20  1  0
 19 21  1  0
 22  4  1  0
 22 27  1  0
 22 23  1  0
  8  2  1  0
  8  9  1  0
  8 10  1  0
 24 26  2  0
 24 27  1  0
 25 27  2  0
 25 29  1  0
 17 18  1  0
  1  2  2  0
  1  3  1  0
 31 32  2  0
 31 33  1  0
 31 35  1  0
 32 36  1  0
 33 34  2  0
 33 26  1  0
  2  6  1  0
  3  5  2  0
  4  5  1  0
  4  6  2  0
 26 28  1  0
 35 38  2  0
 36 39  2  0
 38 39  1  0
 28 29  2  0
  9 11  1  0
 11 12  2  0
M  END
> <PUBCHEM_COMPOUND_CID>
71496458

> <PUBCHEM_COMPOUND_CANONICALIZED>
1

> <PUBCHEM_CACTVS_COMPLEXITY>
752

> <PUBCHEM_CACTVS_HBOND_ACCEPTOR>
7

> <PUBCHEM_CACTVS_HBOND_DONOR>
2

> <PUBCHEM_CACTVS_ROTATABLE_BOND>
10

> <PUBCHEM_CACTVS_SUBSKEYS>
AAADcfB7sAAAAAAAAAAAAAAAAAAAAWAAAAA8YIAAAAAAAFgB/AAAHgAQAAAADAzBngY/1vfMFACoAzV3dACCiCkxIqAJ2CA/fNiObuLE+duVNChu1BvY6Kew0MMOgECAAgQCECAAgQAECAQgQAAAAAAAAA==

> <PUBCHEM_IUPAC_OPENEYE_NAME>
N-[2-[2-(dimethylamino)ethyl-methyl-amino]-4-methoxy-5-[[4-(1-methylindol-3-yl)pyrimidin-2-yl]amino]phenyl]prop-2-enamide

> <PUBCHEM_IUPAC_CAS_NAME>
N-[2-[2-(dimethylamino)ethyl-methylamino]-4-methoxy-5-[[4-(1-methyl-3-indolyl)-2-pyrimidinyl]amino]phenyl]-2-propenamide

> <PUBCHEM_IUPAC_NAME_MARKUP>
<I>N</I>-[2-[2-(dimethylamino)ethyl-methylamino]-4-methoxy-5-[[4-(1-methylindol-3-yl)pyrimidin-2-yl]amino]phenyl]prop-2-enamide

> <PUBCHEM_IUPAC_NAME>
N-[2-[2-(dimethylamino)ethyl-methylamino]-4-methoxy-5-[[4-(1-methylindol-3-yl)pyrimidin-2-yl]amino]phenyl]prop-2-enamide

> <PUBCHEM_IUPAC_SYSTEMATIC_NAME>
N-[2-[2-(dimethylamino)ethyl-methyl-amino]-4-methoxy-5-[[4-(1-methylindol-3-yl)pyrimidin-2-yl]amino]phenyl]prop-2-enamide

> <PUBCHEM_IUPAC_TRADITIONAL_NAME>
N-[2-[2-(dimethylamino)ethyl-methyl-amino]-4-methoxy-5-[[4-(1-methylindol-3-yl)pyrimidin-2-yl]amino]phenyl]acrylamide

> <PUBCHEM_IUPAC_INCHI>
InChI=1S/C28H33N7O2/c1-7-27(36)30-22-16-23(26(37-6)17-25(22)34(4)15-14-33(2)3)32-28-29-13-12-21(31-28)20-18-35(5)24-11-9-8-10-19(20)24/h7-13,16-18H,1,14-15H2,2-6H3,(H,30,36)(H,29,31,32)

> <PUBCHEM_IUPAC_INCHIKEY>
DUYJMQONPNNFPI-UHFFFAOYSA-N

> <PUBCHEM_XLOGP3_AA>
3.7

> <PUBCHEM_EXACT_MASS>
499.26957332

> <PUBCHEM_MOLECULAR_FORMULA>
C28H33N7O2

> <PUBCHEM_MOLECULAR_WEIGHT>
499.6

> <PUBCHEM_REFERENCE_STANDARDIZATION>
Bypass - this structure was created from CID 78357807

> <PUBCHEM_SMILES>
CN1C=C(C2=CC=CC=C21)C3=NC(=NC=C3)NC4=C(C=C(C(=C4)NC(=O)C=C)N(C)CCN(C)C)OC

> <PUBCHEM_OPENEYE_CAN_SMILES>
CN1C=C(C2=CC=CC=C21)C3=NC(=NC=C3)NC4=C(C=C(C(=C4)NC(=O)C=C)N(C)CCN(C)C)OC

> <PUBCHEM_OPENEYE_ISO_SMILES>
CN1C=C(C2=CC=CC=C21)C3=NC(=NC=C3)NC4=C(C=C(C(=C4)NC(=O)C=C)N(C)CCN(C)C)OC

> <PUBCHEM_CACTVS_TPSA>
87.6

> <PUBCHEM_MONOISOTOPIC_WEIGHT>
499.26957332

> <PUBCHEM_TOTAL_CHARGE>
0

> <PUBCHEM_HEAVY_ATOM_COUNT>
37

> <PUBCHEM_ATOM_DEF_STEREO_COUNT>
0

> <PUBCHEM_ATOM_UDEF_STEREO_COUNT>
0

> <PUBCHEM_BOND_DEF_STEREO_COUNT>
0

> <PUBCHEM_BOND_UDEF_STEREO_COUNT>
0

> <PUBCHEM_ISOTOPIC_ATOM_COUNT>
0

> <PUBCHEM_COMPONENT_COUNT>
1

> <PUBCHEM_CACTVS_TAUTO_COUNT>
-1

> <PUBCHEM_COORDINATE_TYPE>
1
5
255

> <PUBCHEM_BONDANNOTATIONS>
11  16  8
11  17  8
13  14  8
13  15  8
13  24  8
14  25  8
15  18  8
16  22  8
17  21  8
19  21  8
19  22  8
23  32  8
24  30  8
25  31  8
30  31  8
32  33  8
4  14  8
4  18  8
8  23  8
8  29  8
9  29  8
9  33  8

> <minimizedAffinity>
-9.22795

> <CNNscore>
0.0146172903

> <CNNaffinity>
4.7447891235

> <CNN_VS>
0.0693559572

> <CNNaffinity_variance>
3.7382678986

$$$$
71496458


 39 42  0  0  0  0  0  0  0  0999 V2000
   -9.8820   17.0489    6.3949 C   0  0  0  0  0  0  0  0  0  0  0  0
  -10.6718   16.8189    5.8264 C   0  0  0  0  0  0  0  0  0  0  0  0
   -8.9943   17.2253    5.9698 C   0  0  0  0  0  0  0  0  0  0  0  0
   -9.6862   16.9416    4.4075 C   0  0  0  0  0  0  0  0  0  0  0  0
   -8.8964   17.1717    4.9760 C   0  0  0  0  0  0  0  0  0  0  0  0
  -10.5740   16.7652    4.8327 C   0  0  0  0  0  0  0  0  0  0  0  0
  -12.2793   17.8626    5.2549 O   0  0  0  0  0  0  0  0  0  0  0  0
  -11.5596   16.6425    6.2517 N   0  0  0  0  0  0  0  0  0  0  0  0
  -12.3634   17.1644    5.9659 C   0  0  0  0  0  0  0  0  0  0  0  0
  -11.6117   16.2096    6.6925 H   0  0  0  0  0  0  0  0  0  0  0  0
  -13.2511   16.9881    6.3912 C   0  0  0  0  0  0  0  0  0  0  0  0
  -13.8918   17.7409    6.5415 C   0  0  0  0  0  0  0  0  0  0  0  0
   -8.0086   17.3481    4.5508 O   0  0  0  0  0  0  0  0  0  0  0  0
   -7.2302   17.6241    5.1146 C   0  0  0  0  0  0  0  0  0  0  0  0
   -9.9800   17.1025    7.3888 N   0  0  0  0  0  0  0  0  0  0  0  0
  -10.0045   17.9939    7.8414 C   0  0  0  0  0  0  0  0  0  0  0  0
  -10.0533   16.2647    7.9299 C   0  0  0  0  0  0  0  0  0  0  0  0
  -10.2201   16.3184    8.9144 C   0  0  0  0  0  0  0  0  0  0  0  0
  -10.5281   15.5089    9.4142 N   0  0  0  0  0  0  0  0  0  0  0  0
   -9.8709   14.8011    9.6732 C   0  0  0  0  0  0  0  0  0  0  0  0
  -11.4934   15.4072    9.6550 C   0  0  0  0  0  0  0  0  0  0  0  0
   -9.5883   16.8880    3.4137 N   0  0  0  0  0  0  0  0  0  0  0  0
   -9.4112   16.3566    3.1479 H   0  0  0  0  0  0  0  0  0  0  0  0
   -9.0639   18.0599    2.2511 N   0  0  0  0  0  0  0  0  0  0  0  0
  -10.6759   18.1263    2.8812 N   0  0  0  0  0  0  0  0  0  0  0  0
   -9.2516   18.8633    1.6860 C   0  0  0  0  0  0  0  0  0  0  0  0
   -9.7760   17.6914    2.8486 C   0  0  0  0  0  0  0  0  0  0  0  0
  -10.1515   19.2982    1.7185 C   0  0  0  0  0  0  0  0  0  0  0  0
  -10.8636   18.9297    2.3161 C   0  0  0  0  0  0  0  0  0  0  0  0
   -7.2635   20.0566    0.5575 N   0  0  0  0  0  0  0  0  0  0  0  0
   -8.4241   19.0262    0.1228 C   0  0  0  0  0  0  0  0  0  0  0  0
   -7.6313   19.5387   -0.2071 C   0  0  0  0  0  0  0  0  0  0  0  0
   -8.5395   19.2317    1.0885 C   0  0  0  0  0  0  0  0  0  0  0  0
   -7.8237   19.8672    1.3566 C   0  0  0  0  0  0  0  0  0  0  0  0
   -8.9359   18.4388   -0.5043 C   0  0  0  0  0  0  0  0  0  0  0  0
   -7.3504   19.4638   -1.1640 C   0  0  0  0  0  0  0  0  0  0  0  0
   -6.4685   20.6625    0.5280 C   0  0  0  0  0  0  0  0  0  0  0  0
   -8.6550   18.3640   -1.4610 C   0  0  0  0  0  0  0  0  0  0  0  0
   -7.8622   18.8765   -1.7909 C   0  0  0  0  0  0  0  0  0  0  0  0
 13  5  1  0
 13 14  1  0
  7  9  2  0
 15 17  1  0
 15  1  1  0
 15 16  1  0
 30 32  1  0
 30 34  1  0
 30 37  1  0
 19 18  1  0
 19 20  1  0
 19 21  1  0
 22  4  1  0
 22 27  1  0
 22 23  1  0
  8  2  1  0
  8  9  1  0
  8 10  1  0
 24 26  2  0
 24 27  1  0
 25 27  2  0
 25 29  1  0
 17 18  1  0
  1  2  2  0
  1  3  1  0
 31 32  2  0
 31 33  1  0
 31 35  1  0
 32 36  1  0
 33 34  2  0
 33 26  1  0
  2  6  1  0
  3  5  2  0
  4  5  1  0
  4  6  2  0
 26 28  1  0
 35 38  2  0
 36 39  2  0
 38 39  1  0
 28 29  2  0
  9 11  1  0
 11 12  2  0
M  END
> <PUBCHEM_COMPOUND_CID>
71496458

> <PUBCHEM_COMPOUND_CANONICALIZED>
1

> <PUBCHEM_CACTVS_COMPLEXITY>
752

> <PUBCHEM_CACTVS_HBOND_ACCEPTOR>
7

> <PUBCHEM_CACTVS_HBOND_DONOR>
2

> <PUBCHEM_CACTVS_ROTATABLE_BOND>
10

> <PUBCHEM_CACTVS_SUBSKEYS>
AAADcfB7sAAAAAAAAAAAAAAAAAAAAWAAAAA8YIAAAAAAAFgB/AAAHgAQAAAADAzBngY/1vfMFACoAzV3dACCiCkxIqAJ2CA/fNiObuLE+duVNChu1BvY6Kew0MMOgECAAgQCECAAgQAECAQgQAAAAAAAAA==

> <PUBCHEM_IUPAC_OPENEYE_NAME>
N-[2-[2-(dimethylamino)ethyl-methyl-amino]-4-methoxy-5-[[4-(1-methylindol-3-yl)pyrimidin-2-yl]amino]phenyl]prop-2-enamide

> <PUBCHEM_IUPAC_CAS_NAME>
N-[2-[2-(dimethylamino)ethyl-methylamino]-4-methoxy-5-[[4-(1-methyl-3-indolyl)-2-pyrimidinyl]amino]phenyl]-2-propenamide

> <PUBCHEM_IUPAC_NAME_MARKUP>
<I>N</I>-[2-[2-(dimethylamino)ethyl-methylamino]-4-methoxy-5-[[4-(1-methylindol-3-yl)pyrimidin-2-yl]amino]phenyl]prop-2-enamide

> <PUBCHEM_IUPAC_NAME>
N-[2-[2-(dimethylamino)ethyl-methylamino]-4-methoxy-5-[[4-(1-methylindol-3-yl)pyrimidin-2-yl]amino]phenyl]prop-2-enamide

> <PUBCHEM_IUPAC_SYSTEMATIC_NAME>
N-[2-[2-(dimethylamino)ethyl-methyl-amino]-4-methoxy-5-[[4-(1-methylindol-3-yl)pyrimidin-2-yl]amino]phenyl]prop-2-enamide

> <PUBCHEM_IUPAC_TRADITIONAL_NAME>
N-[2-[2-(dimethylamino)ethyl-methyl-amino]-4-methoxy-5-[[4-(1-methylindol-3-yl)pyrimidin-2-yl]amino]phenyl]acrylamide

> <PUBCHEM_IUPAC_INCHI>
InChI=1S/C28H33N7O2/c1-7-27(36)30-22-16-23(26(37-6)17-25(22)34(4)15-14-33(2)3)32-28-29-13-12-21(31-28)20-18-35(5)24-11-9-8-10-19(20)24/h7-13,16-18H,1,14-15H2,2-6H3,(H,30,36)(H,29,31,32)

> <PUBCHEM_IUPAC_INCHIKEY>
DUYJMQONPNNFPI-UHFFFAOYSA-N

> <PUBCHEM_XLOGP3_AA>
3.7

> <PUBCHEM_EXACT_MASS>
499.26957332

> <PUBCHEM_MOLECULAR_FORMULA>
C28H33N7O2

> <PUBCHEM_MOLECULAR_WEIGHT>
499.6

> <PUBCHEM_REFERENCE_STANDARDIZATION>
Bypass - this structure was created from CID 78357807

> <PUBCHEM_SMILES>
CN1C=C(C2=CC=CC=C21)C3=NC(=NC=C3)NC4=C(C=C(C(=C4)NC(=O)C=C)N(C)CCN(C)C)OC

> <PUBCHEM_OPENEYE_CAN_SMILES>
CN1C=C(C2=CC=CC=C21)C3=NC(=NC=C3)NC4=C(C=C(C(=C4)NC(=O)C=C)N(C)CCN(C)C)OC

> <PUBCHEM_OPENEYE_ISO_SMILES>
CN1C=C(C2=CC=CC=C21)C3=NC(=NC=C3)NC4=C(C=C(C(=C4)NC(=O)C=C)N(C)CCN(C)C)OC

> <PUBCHEM_CACTVS_TPSA>
87.6

> <PUBCHEM_MONOISOTOPIC_WEIGHT>
499.26957332

> <PUBCHEM_TOTAL_CHARGE>
0

> <PUBCHEM_HEAVY_ATOM_COUNT>
37

> <PUBCHEM_ATOM_DEF_STEREO_COUNT>
0

> <PUBCHEM_ATOM_UDEF_STEREO_COUNT>
0

> <PUBCHEM_BOND_DEF_STEREO_COUNT>
0

> <PUBCHEM_BOND_UDEF_STEREO_COUNT>
0

> <PUBCHEM_ISOTOPIC_ATOM_COUNT>
0

> <PUBCHEM_COMPONENT_COUNT>
1

> <PUBCHEM_CACTVS_TAUTO_COUNT>
-1

> <PUBCHEM_COORDINATE_TYPE>
1
5
255

> <PUBCHEM_BONDANNOTATIONS>
11  16  8
11  17  8
13  14  8
13  15  8
13  24  8
14  25  8
15  18  8
16  22  8
17  21  8
19  21  8
19  22  8
23  32  8
24  30  8
25  31  8
30  31  8
32  33  8
4  14  8
4  18  8
8  23  8
8  29  8
9  29  8
9  33  8

> <minimizedAffinity>
-6.02704

> <CNNscore>
0.0139497351

> <CNNaffinity>
3.4327785969

> <CNN_VS>
0.0478863530

> <CNNaffinity_variance>
3.7906630039

$$$$
71496458


 39 42  0  0  0  0  0  0  0  0999 V2000
  -16.8072   19.9675   -5.1378 C   0  0  0  0  0  0  0  0  0  0  0  0
  -17.1589   19.2427   -5.7302 C   0  0  0  0  0  0  0  0  0  0  0  0
  -15.8452   19.9674   -4.8649 C   0  0  0  0  0  0  0  0  0  0  0  0
  -15.5866   18.5178   -5.7768 C   0  0  0  0  0  0  0  0  0  0  0  0
  -15.2348   19.2426   -5.1844 C   0  0  0  0  0  0  0  0  0  0  0  0
  -16.5486   18.5178   -6.0498 C   0  0  0  0  0  0  0  0  0  0  0  0
  -17.6492   19.1263   -7.6657 O   0  0  0  0  0  0  0  0  0  0  0  0
  -18.1209   19.2428   -6.0031 N   0  0  0  0  0  0  0  0  0  0  0  0
  -18.3661   19.1846   -6.9709 C   0  0  0  0  0  0  0  0  0  0  0  0
  -18.5655   19.2789   -5.5724 H   0  0  0  0  0  0  0  0  0  0  0  0
  -19.3282   19.1847   -7.2438 C   0  0  0  0  0  0  0  0  0  0  0  0
  -19.5813   19.4155   -8.1833 C   0  0  0  0  0  0  0  0  0  0  0  0
  -14.2728   19.2426   -4.9115 O   0  0  0  0  0  0  0  0  0  0  0  0
  -13.9108   19.9909   -4.3556 C   0  0  0  0  0  0  0  0  0  0  0  0
  -17.4176   20.6923   -4.8182 N   0  0  0  0  0  0  0  0  0  0  0  0
  -17.4139   21.5845   -5.2700 C   0  0  0  0  0  0  0  0  0  0  0  0
  -18.0318   20.5250   -4.0469 C   0  0  0  0  0  0  0  0  0  0  0  0
  -18.2078   21.2503   -3.3815 C   0  0  0  0  0  0  0  0  0  0  0  0
  -18.7677   21.0632   -2.5743 N   0  0  0  0  0  0  0  0  0  0  0  0
  -19.7167   21.3767   -2.5406 C   0  0  0  0  0  0  0  0  0  0  0  0
  -18.3787   20.5626   -1.8010 C   0  0  0  0  0  0  0  0  0  0  0  0
  -14.9762   17.7930   -6.0964 N   0  0  0  0  0  0  0  0  0  0  0  0
  -14.7897   17.3498   -5.7049 H   0  0  0  0  0  0  0  0  0  0  0  0
  -13.8389   18.2792   -7.3089 N   0  0  0  0  0  0  0  0  0  0  0  0
  -15.1849   17.2763   -7.7363 N   0  0  0  0  0  0  0  0  0  0  0  0
  -13.5293   18.2691   -8.2597 C   0  0  0  0  0  0  0  0  0  0  0  0
  -14.6666   17.7829   -7.0472 C   0  0  0  0  0  0  0  0  0  0  0  0
  -14.0475   17.7626   -8.9488 C   0  0  0  0  0  0  0  0  0  0  0  0
  -14.8753   17.2662   -8.6871 C   0  0  0  0  0  0  0  0  0  0  0  0
  -11.5986   19.9275   -8.6744 N   0  0  0  0  0  0  0  0  0  0  0  0
  -11.9557   18.4069   -9.0720 C   0  0  0  0  0  0  0  0  0  0  0  0
  -11.2704   19.1289   -9.1671 C   0  0  0  0  0  0  0  0  0  0  0  0
  -12.7016   18.7654   -8.5214 C   0  0  0  0  0  0  0  0  0  0  0  0
  -12.4814   19.7032   -8.2761 C   0  0  0  0  0  0  0  0  0  0  0  0
  -11.8067   17.5163   -9.5019 C   0  0  0  0  0  0  0  0  0  0  0  0
  -10.4361   18.9603   -9.6921 C   0  0  0  0  0  0  0  0  0  0  0  0
  -11.1235   20.8036   -8.5936 C   0  0  0  0  0  0  0  0  0  0  0  0
  -10.9725   17.3478  -10.0269 C   0  0  0  0  0  0  0  0  0  0  0  0
  -10.2871   18.0698  -10.1220 C   0  0  0  0  0  0  0  0  0  0  0  0
 13  5  1  0
 13 14  1  0
  7  9  2  0
 15 17  1  0
 15  1  1  0
 15 16  1  0
 30 32  1  0
 30 34  1  0
 30 37  1  0
 19 18  1  0
 19 20  1  0
 19 21  1  0
 22  4  1  0
 22 27  1  0
 22 23  1  0
  8  2  1  0
  8  9  1  0
  8 10  1  0
 24 26  2  0
 24 27  1  0
 25 27  2  0
 25 29  1  0
 17 18  1  0
  1  2  2  0
  1  3  1  0
 31 32  2  0
 31 33  1  0
 31 35  1  0
 32 36  1  0
 33 34  2  0
 33 26  1  0
  2  6  1  0
  3  5  2  0
  4  5  1  0
  4  6  2  0
 26 28  1  0
 35 38  2  0
 36 39  2  0
 38 39  1  0
 28 29  2  0
  9 11  1  0
 11 12  2  0
M  END
> <PUBCHEM_COMPOUND_CID>
71496458

> <PUBCHEM_COMPOUND_CANONICALIZED>
1

> <PUBCHEM_CACTVS_COMPLEXITY>
752

> <PUBCHEM_CACTVS_HBOND_ACCEPTOR>
7

> <PUBCHEM_CACTVS_HBOND_DONOR>
2

> <PUBCHEM_CACTVS_ROTATABLE_BOND>
10

> <PUBCHEM_CACTVS_SUBSKEYS>
AAADcfB7sAAAAAAAAAAAAAAAAAAAAWAAAAA8YIAAAAAAAFgB/AAAHgAQAAAADAzBngY/1vfMFACoAzV3dACCiCkxIqAJ2CA/fNiObuLE+duVNChu1BvY6Kew0MMOgECAAgQCECAAgQAECAQgQAAAAAAAAA==

> <PUBCHEM_IUPAC_OPENEYE_NAME>
N-[2-[2-(dimethylamino)ethyl-methyl-amino]-4-methoxy-5-[[4-(1-methylindol-3-yl)pyrimidin-2-yl]amino]phenyl]prop-2-enamide

> <PUBCHEM_IUPAC_CAS_NAME>
N-[2-[2-(dimethylamino)ethyl-methylamino]-4-methoxy-5-[[4-(1-methyl-3-indolyl)-2-pyrimidinyl]amino]phenyl]-2-propenamide

> <PUBCHEM_IUPAC_NAME_MARKUP>
<I>N</I>-[2-[2-(dimethylamino)ethyl-methylamino]-4-methoxy-5-[[4-(1-methylindol-3-yl)pyrimidin-2-yl]amino]phenyl]prop-2-enamide

> <PUBCHEM_IUPAC_NAME>
N-[2-[2-(dimethylamino)ethyl-methylamino]-4-methoxy-5-[[4-(1-methylindol-3-yl)pyrimidin-2-yl]amino]phenyl]prop-2-enamide

> <PUBCHEM_IUPAC_SYSTEMATIC_NAME>
N-[2-[2-(dimethylamino)ethyl-methyl-amino]-4-methoxy-5-[[4-(1-methylindol-3-yl)pyrimidin-2-yl]amino]phenyl]prop-2-enamide

> <PUBCHEM_IUPAC_TRADITIONAL_NAME>
N-[2-[2-(dimethylamino)ethyl-methyl-amino]-4-methoxy-5-[[4-(1-methylindol-3-yl)pyrimidin-2-yl]amino]phenyl]acrylamide

> <PUBCHEM_IUPAC_INCHI>
InChI=1S/C28H33N7O2/c1-7-27(36)30-22-16-23(26(37-6)17-25(22)34(4)15-14-33(2)3)32-28-29-13-12-21(31-28)20-18-35(5)24-11-9-8-10-19(20)24/h7-13,16-18H,1,14-15H2,2-6H3,(H,30,36)(H,29,31,32)

> <PUBCHEM_IUPAC_INCHIKEY>
DUYJMQONPNNFPI-UHFFFAOYSA-N

> <PUBCHEM_XLOGP3_AA>
3.7

> <PUBCHEM_EXACT_MASS>
499.26957332

> <PUBCHEM_MOLECULAR_FORMULA>
C28H33N7O2

> <PUBCHEM_MOLECULAR_WEIGHT>
499.6

> <PUBCHEM_REFERENCE_STANDARDIZATION>
Bypass - this structure was created from CID 78357807

> <PUBCHEM_SMILES>
CN1C=C(C2=CC=CC=C21)C3=NC(=NC=C3)NC4=C(C=C(C(=C4)NC(=O)C=C)N(C)CCN(C)C)OC

> <PUBCHEM_OPENEYE_CAN_SMILES>
CN1C=C(C2=CC=CC=C21)C3=NC(=NC=C3)NC4=C(C=C(C(=C4)NC(=O)C=C)N(C)CCN(C)C)OC

> <PUBCHEM_OPENEYE_ISO_SMILES>
CN1C=C(C2=CC=CC=C21)C3=NC(=NC=C3)NC4=C(C=C(C(=C4)NC(=O)C=C)N(C)CCN(C)C)OC

> <PUBCHEM_CACTVS_TPSA>
87.6

> <PUBCHEM_MONOISOTOPIC_WEIGHT>
499.26957332

> <PUBCHEM_TOTAL_CHARGE>
0

> <PUBCHEM_HEAVY_ATOM_COUNT>
37

> <PUBCHEM_ATOM_DEF_STEREO_COUNT>
0

> <PUBCHEM_ATOM_UDEF_STEREO_COUNT>
0

> <PUBCHEM_BOND_DEF_STEREO_COUNT>
0

> <PUBCHEM_BOND_UDEF_STEREO_COUNT>
0

> <PUBCHEM_ISOTOPIC_ATOM_COUNT>
0

> <PUBCHEM_COMPONENT_COUNT>
1

> <PUBCHEM_CACTVS_TAUTO_COUNT>
-1

> <PUBCHEM_COORDINATE_TYPE>
1
5
255

> <PUBCHEM_BONDANNOTATIONS>
11  16  8
11  17  8
13  14  8
13  15  8
13  24  8
14  25  8
15  18  8
16  22  8
17  21  8
19  21  8
19  22  8
23  32  8
24  30  8
25  31  8
30  31  8
32  33  8
4  14  8
4  18  8
8  23  8
8  29  8
9  29  8
9  33  8

> <minimizedAffinity>
-7.96914

> <CNNscore>
0.0127785522

> <CNNaffinity>
3.7773611546

> <CNN_VS>
0.0482692085

> <CNNaffinity_variance>
3.2745659351

$$$$
71496458


 39 42  0  0  0  0  0  0  0  0999 V2000
  -10.6055    0.1730   -5.9518 C   0  0  0  0  0  0  0  0  0  0  0  0
   -9.8650    0.4486   -6.5647 C   0  0  0  0  0  0  0  0  0  0  0  0
  -10.8651    0.7605   -5.1854 C   0  0  0  0  0  0  0  0  0  0  0  0
   -9.6438    1.8995   -5.6450 C   0  0  0  0  0  0  0  0  0  0  0  0
  -10.3842    1.6238   -5.0320 C   0  0  0  0  0  0  0  0  0  0  0  0
   -9.3842    1.3119   -6.4114 C   0  0  0  0  0  0  0  0  0  0  0  0
   -9.6913    1.2198   -8.4019 O   0  0  0  0  0  0  0  0  0  0  0  0
   -9.6055   -0.1390   -7.3311 N   0  0  0  0  0  0  0  0  0  0  0  0
   -9.5186    0.2466   -8.2498 C   0  0  0  0  0  0  0  0  0  0  0  0
   -9.4984   -0.7424   -7.2368 H   0  0  0  0  0  0  0  0  0  0  0  0
   -9.2591   -0.3410   -9.0161 C   0  0  0  0  0  0  0  0  0  0  0  0
   -9.7023   -0.2278   -9.9053 C   0  0  0  0  0  0  0  0  0  0  0  0
  -10.6438    2.2114   -4.2656 O   0  0  0  0  0  0  0  0  0  0  0  0
  -11.1790    1.8377   -3.5080 C   0  0  0  0  0  0  0  0  0  0  0  0
  -11.0864   -0.6904   -6.1052 N   0  0  0  0  0  0  0  0  0  0  0  0
  -11.9810   -0.6918   -6.5521 C   0  0  0  0  0  0  0  0  0  0  0  0
  -10.6726   -1.5522   -5.8118 C   0  0  0  0  0  0  0  0  0  0  0  0
  -11.1536   -2.1426   -5.1638 C   0  0  0  0  0  0  0  0  0  0  0  0
  -10.7632   -3.0272   -4.9085 N   0  0  0  0  0  0  0  0  0  0  0  0
   -9.7756   -3.1731   -4.9658 C   0  0  0  0  0  0  0  0  0  0  0  0
  -11.3604   -3.7659   -4.5959 C   0  0  0  0  0  0  0  0  0  0  0  0
   -9.1629    2.7627   -5.4915 N   0  0  0  0  0  0  0  0  0  0  0  0
   -8.7019    2.7915   -5.0779 H   0  0  0  0  0  0  0  0  0  0  0  0
   -9.7899    4.3770   -5.5242 N   0  0  0  0  0  0  0  0  0  0  0  0
   -9.3237    3.5989   -6.9998 N   0  0  0  0  0  0  0  0  0  0  0  0
  -10.0525    5.1939   -6.0378 C   0  0  0  0  0  0  0  0  0  0  0  0
   -9.4255    3.5796   -6.0051 C   0  0  0  0  0  0  0  0  0  0  0  0
   -9.9507    5.2132   -7.0324 C   0  0  0  0  0  0  0  0  0  0  0  0
   -9.5863    4.4158   -7.5134 C   0  0  0  0  0  0  0  0  0  0  0  0
  -11.2373    7.3361   -5.2273 N   0  0  0  0  0  0  0  0  0  0  0  0
  -10.2061    6.2554   -4.6220 C   0  0  0  0  0  0  0  0  0  0  0  0
  -10.7158    7.0910   -4.4172 C   0  0  0  0  0  0  0  0  0  0  0  0
  -10.4168    5.9912   -5.5568 C   0  0  0  0  0  0  0  0  0  0  0  0
  -11.0528    6.6578   -5.9302 C   0  0  0  0  0  0  0  0  0  0  0  0
   -9.6161    5.8463   -3.9257 C   0  0  0  0  0  0  0  0  0  0  0  0
  -10.6357    7.5175   -3.5163 C   0  0  0  0  0  0  0  0  0  0  0  0
  -11.8419    8.1273   -5.3191 C   0  0  0  0  0  0  0  0  0  0  0  0
   -9.5360    6.2728   -3.0248 C   0  0  0  0  0  0  0  0  0  0  0  0
  -10.0457    7.1084   -2.8201 C   0  0  0  0  0  0  0  0  0  0  0  0
 13  5  1  0
 13 14  1  0
  7  9  2  0
 15 17  1  0
 15  1  1  0
 15 16  1  0
 30 32  1  0
 30 34  1  0
 30 37  1  0
 19 18  1  0
 19 20  1  0
 19 21  1  0
 22  4  1  0
 22 27  1  0
 22 23  1  0
  8  2  1  0
  8  9  1  0
  8 10  1  0
 24 26  2  0
 24 27  1  0
 25 27  2  0
 25 29  1  0
 17 18  1  0
  1  2  2  0
  1  3  1  0
 31 32  2  0
 31 33  1  0
 31 35  1  0
 32 36  1  0
 33 34  2  0
 33 26  1  0
  2  6  1  0
  3  5  2  0
  4  5  1  0
  4  6  2  0
 26 28  1  0
 35 38  2  0
 36 39  2  0
 38 39  1  0
 28 29  2  0
  9 11  1  0
 11 12  2  0
M  END
> <PUBCHEM_COMPOUND_CID>
71496458

> <PUBCHEM_COMPOUND_CANONICALIZED>
1

> <PUBCHEM_CACTVS_COMPLEXITY>
752

> <PUBCHEM_CACTVS_HBOND_ACCEPTOR>
7

> <PUBCHEM_CACTVS_HBOND_DONOR>
2

> <PUBCHEM_CACTVS_ROTATABLE_BOND>
10

> <PUBCHEM_CACTVS_SUBSKEYS>
AAADcfB7sAAAAAAAAAAAAAAAAAAAAWAAAAA8YIAAAAAAAFgB/AAAHgAQAAAADAzBngY/1vfMFACoAzV3dACCiCkxIqAJ2CA/fNiObuLE+duVNChu1BvY6Kew0MMOgECAAgQCECAAgQAECAQgQAAAAAAAAA==

> <PUBCHEM_IUPAC_OPENEYE_NAME>
N-[2-[2-(dimethylamino)ethyl-methyl-amino]-4-methoxy-5-[[4-(1-methylindol-3-yl)pyrimidin-2-yl]amino]phenyl]prop-2-enamide

> <PUBCHEM_IUPAC_CAS_NAME>
N-[2-[2-(dimethylamino)ethyl-methylamino]-4-methoxy-5-[[4-(1-methyl-3-indolyl)-2-pyrimidinyl]amino]phenyl]-2-propenamide

> <PUBCHEM_IUPAC_NAME_MARKUP>
<I>N</I>-[2-[2-(dimethylamino)ethyl-methylamino]-4-methoxy-5-[[4-(1-methylindol-3-yl)pyrimidin-2-yl]amino]phenyl]prop-2-enamide

> <PUBCHEM_IUPAC_NAME>
N-[2-[2-(dimethylamino)ethyl-methylamino]-4-methoxy-5-[[4-(1-methylindol-3-yl)pyrimidin-2-yl]amino]phenyl]prop-2-enamide

> <PUBCHEM_IUPAC_SYSTEMATIC_NAME>
N-[2-[2-(dimethylamino)ethyl-methyl-amino]-4-methoxy-5-[[4-(1-methylindol-3-yl)pyrimidin-2-yl]amino]phenyl]prop-2-enamide

> <PUBCHEM_IUPAC_TRADITIONAL_NAME>
N-[2-[2-(dimethylamino)ethyl-methyl-amino]-4-methoxy-5-[[4-(1-methylindol-3-yl)pyrimidin-2-yl]amino]phenyl]acrylamide

> <PUBCHEM_IUPAC_INCHI>
InChI=1S/C28H33N7O2/c1-7-27(36)30-22-16-23(26(37-6)17-25(22)34(4)15-14-33(2)3)32-28-29-13-12-21(31-28)20-18-35(5)24-11-9-8-10-19(20)24/h7-13,16-18H,1,14-15H2,2-6H3,(H,30,36)(H,29,31,32)

> <PUBCHEM_IUPAC_INCHIKEY>
DUYJMQONPNNFPI-UHFFFAOYSA-N

> <PUBCHEM_XLOGP3_AA>
3.7

> <PUBCHEM_EXACT_MASS>
499.26957332

> <PUBCHEM_MOLECULAR_FORMULA>
C28H33N7O2

> <PUBCHEM_MOLECULAR_WEIGHT>
499.6

> <PUBCHEM_REFERENCE_STANDARDIZATION>
Bypass - this structure was created from CID 78357807

> <PUBCHEM_SMILES>
CN1C=C(C2=CC=CC=C21)C3=NC(=NC=C3)NC4=C(C=C(C(=C4)NC(=O)C=C)N(C)CCN(C)C)OC

> <PUBCHEM_OPENEYE_CAN_SMILES>
CN1C=C(C2=CC=CC=C21)C3=NC(=NC=C3)NC4=C(C=C(C(=C4)NC(=O)C=C)N(C)CCN(C)C)OC

> <PUBCHEM_OPENEYE_ISO_SMILES>
CN1C=C(C2=CC=CC=C21)C3=NC(=NC=C3)NC4=C(C=C(C(=C4)NC(=O)C=C)N(C)CCN(C)C)OC

> <PUBCHEM_CACTVS_TPSA>
87.6

> <PUBCHEM_MONOISOTOPIC_WEIGHT>
499.26957332

> <PUBCHEM_TOTAL_CHARGE>
0

> <PUBCHEM_HEAVY_ATOM_COUNT>
37

> <PUBCHEM_ATOM_DEF_STEREO_COUNT>
0

> <PUBCHEM_ATOM_UDEF_STEREO_COUNT>
0

> <PUBCHEM_BOND_DEF_STEREO_COUNT>
0

> <PUBCHEM_BOND_UDEF_STEREO_COUNT>
0

> <PUBCHEM_ISOTOPIC_ATOM_COUNT>
0

> <PUBCHEM_COMPONENT_COUNT>
1

> <PUBCHEM_CACTVS_TAUTO_COUNT>
-1

> <PUBCHEM_COORDINATE_TYPE>
1
5
255

> <PUBCHEM_BONDANNOTATIONS>
11  16  8
11  17  8
13  14  8
13  15  8
13  24  8
14  25  8
15  18  8
16  22  8
17  21  8
19  21  8
19  22  8
23  32  8
24  30  8
25  31  8
30  31  8
32  33  8
4  14  8
4  18  8
8  23  8
8  29  8
9  29  8
9  33  8

> <minimizedAffinity>
-9.41237

> <CNNscore>
0.0117106419

> <CNNaffinity>
4.6224722862

> <CNN_VS>
0.0541321188

> <CNNaffinity_variance>
3.7803452015

$$$$
71496458


 39 42  0  0  0  0  0  0  0  0999 V2000
   -9.8934   17.3430    6.0128 C   0  0  0  0  0  0  0  0  0  0  0  0
   -9.0914   17.4708    5.4295 C   0  0  0  0  0  0  0  0  0  0  0  0
  -10.7976   17.2275    5.6015 C   0  0  0  0  0  0  0  0  0  0  0  0
  -10.0975   17.3677    4.0235 C   0  0  0  0  0  0  0  0  0  0  0  0
  -10.8997   17.2399    4.6068 C   0  0  0  0  0  0  0  0  0  0  0  0
   -9.1934   17.4832    4.4348 C   0  0  0  0  0  0  0  0  0  0  0  0
   -7.5643   18.1301    4.3189 O   0  0  0  0  0  0  0  0  0  0  0  0
   -8.1873   17.5863    5.8409 N   0  0  0  0  0  0  0  0  0  0  0  0
   -7.4237   17.9160    5.2855 C   0  0  0  0  0  0  0  0  0  0  0  0
   -8.1000   17.4536    6.4402 H   0  0  0  0  0  0  0  0  0  0  0  0
   -6.5195   18.0315    5.6969 C   0  0  0  0  0  0  0  0  0  0  0  0
   -5.6975   17.8681    5.1514 C   0  0  0  0  0  0  0  0  0  0  0  0
  -11.8038   17.1244    4.1955 O   0  0  0  0  0  0  0  0  0  0  0  0
  -12.6085   17.0160    4.7792 C   0  0  0  0  0  0  0  0  0  0  0  0
   -9.7913   17.3306    7.0076 N   0  0  0  0  0  0  0  0  0  0  0  0
   -9.6185   18.1819    7.5031 C   0  0  0  0  0  0  0  0  0  0  0  0
   -9.8621   16.4670    7.5068 C   0  0  0  0  0  0  0  0  0  0  0  0
  -10.2395   16.4542    8.4328 C   0  0  0  0  0  0  0  0  0  0  0  0
  -10.5380   15.5906    8.8392 N   0  0  0  0  0  0  0  0  0  0  0  0
   -9.8778   15.0047    9.3091 C   0  0  0  0  0  0  0  0  0  0  0  0
  -11.4965   15.3130    8.7756 C   0  0  0  0  0  0  0  0  0  0  0  0
  -10.1996   17.3801    3.0288 N   0  0  0  0  0  0  0  0  0  0  0  0
  -10.3439   16.8589    2.7255 H   0  0  0  0  0  0  0  0  0  0  0  0
   -9.2680   18.3485    1.9359 N   0  0  0  0  0  0  0  0  0  0  0  0
  -10.7397   18.9702    2.6050 N   0  0  0  0  0  0  0  0  0  0  0  0
   -9.1375   19.2014    1.4303 C   0  0  0  0  0  0  0  0  0  0  0  0
  -10.0691   18.2329    2.5232 C   0  0  0  0  0  0  0  0  0  0  0  0
   -9.8081   19.9387    1.5121 C   0  0  0  0  0  0  0  0  0  0  0  0
  -10.6092   19.8231    2.0994 C   0  0  0  0  0  0  0  0  0  0  0  0
   -6.8554   19.6830    0.3303 N   0  0  0  0  0  0  0  0  0  0  0  0
   -8.2803   19.0795   -0.1206 C   0  0  0  0  0  0  0  0  0  0  0  0
   -7.3601   19.3069   -0.4392 C   0  0  0  0  0  0  0  0  0  0  0  0
   -8.3365   19.3169    0.8431 C   0  0  0  0  0  0  0  0  0  0  0  0
   -7.4577   19.6891    1.1212 C   0  0  0  0  0  0  0  0  0  0  0  0
   -8.9456   18.6850   -0.7545 C   0  0  0  0  0  0  0  0  0  0  0  0
   -7.1052   19.1399   -1.3917 C   0  0  0  0  0  0  0  0  0  0  0  0
   -5.9072   19.9998    0.3120 C   0  0  0  0  0  0  0  0  0  0  0  0
   -8.6907   18.5180   -1.7069 C   0  0  0  0  0  0  0  0  0  0  0  0
   -7.7705   18.7455   -2.0255 C   0  0  0  0  0  0  0  0  0  0  0  0
 13  5  1  0
 13 14  1  0
  7  9  2  0
 15 17  1  0
 15  1  1  0
 15 16  1  0
 30 32  1  0
 30 34  1  0
 30 37  1  0
 19 18  1  0
 19 20  1  0
 19 21  1  0
 22  4  1  0
 22 27  1  0
 22 23  1  0
  8  2  1  0
  8  9  1  0
  8 10  1  0
 24 26  2  0
 24 27  1  0
 25 27  2  0
 25 29  1  0
 17 18  1  0
  1  2  2  0
  1  3  1  0
 31 32  2  0
 31 33  1  0
 31 35  1  0
 32 36  1  0
 33 34  2  0
 33 26  1  0
  2  6  1  0
  3  5  2  0
  4  5  1  0
  4  6  2  0
 26 28  1  0
 35 38  2  0
 36 39  2  0
 38 39  1  0
 28 29  2  0
  9 11  1  0
 11 12  2  0
M  END
> <PUBCHEM_COMPOUND_CID>
71496458

> <PUBCHEM_COMPOUND_CANONICALIZED>
1

> <PUBCHEM_CACTVS_COMPLEXITY>
752

> <PUBCHEM_CACTVS_HBOND_ACCEPTOR>
7

> <PUBCHEM_CACTVS_HBOND_DONOR>
2

> <PUBCHEM_CACTVS_ROTATABLE_BOND>
10

> <PUBCHEM_CACTVS_SUBSKEYS>
AAADcfB7sAAAAAAAAAAAAAAAAAAAAWAAAAA8YIAAAAAAAFgB/AAAHgAQAAAADAzBngY/1vfMFACoAzV3dACCiCkxIqAJ2CA/fNiObuLE+duVNChu1BvY6Kew0MMOgECAAgQCECAAgQAECAQgQAAAAAAAAA==

> <PUBCHEM_IUPAC_OPENEYE_NAME>
N-[2-[2-(dimethylamino)ethyl-methyl-amino]-4-methoxy-5-[[4-(1-methylindol-3-yl)pyrimidin-2-yl]amino]phenyl]prop-2-enamide

> <PUBCHEM_IUPAC_CAS_NAME>
N-[2-[2-(dimethylamino)ethyl-methylamino]-4-methoxy-5-[[4-(1-methyl-3-indolyl)-2-pyrimidinyl]amino]phenyl]-2-propenamide

> <PUBCHEM_IUPAC_NAME_MARKUP>
<I>N</I>-[2-[2-(dimethylamino)ethyl-methylamino]-4-methoxy-5-[[4-(1-methylindol-3-yl)pyrimidin-2-yl]amino]phenyl]prop-2-enamide

> <PUBCHEM_IUPAC_NAME>
N-[2-[2-(dimethylamino)ethyl-methylamino]-4-methoxy-5-[[4-(1-methylindol-3-yl)pyrimidin-2-yl]amino]phenyl]prop-2-enamide

> <PUBCHEM_IUPAC_SYSTEMATIC_NAME>
N-[2-[2-(dimethylamino)ethyl-methyl-amino]-4-methoxy-5-[[4-(1-methylindol-3-yl)pyrimidin-2-yl]amino]phenyl]prop-2-enamide

> <PUBCHEM_IUPAC_TRADITIONAL_NAME>
N-[2-[2-(dimethylamino)ethyl-methyl-amino]-4-methoxy-5-[[4-(1-methylindol-3-yl)pyrimidin-2-yl]amino]phenyl]acrylamide

> <PUBCHEM_IUPAC_INCHI>
InChI=1S/C28H33N7O2/c1-7-27(36)30-22-16-23(26(37-6)17-25(22)34(4)15-14-33(2)3)32-28-29-13-12-21(31-28)20-18-35(5)24-11-9-8-10-19(20)24/h7-13,16-18H,1,14-15H2,2-6H3,(H,30,36)(H,29,31,32)

> <PUBCHEM_IUPAC_INCHIKEY>
DUYJMQONPNNFPI-UHFFFAOYSA-N

> <PUBCHEM_XLOGP3_AA>
3.7

> <PUBCHEM_EXACT_MASS>
499.26957332

> <PUBCHEM_MOLECULAR_FORMULA>
C28H33N7O2

> <PUBCHEM_MOLECULAR_WEIGHT>
499.6

> <PUBCHEM_REFERENCE_STANDARDIZATION>
Bypass - this structure was created from CID 78357807

> <PUBCHEM_SMILES>
CN1C=C(C2=CC=CC=C21)C3=NC(=NC=C3)NC4=C(C=C(C(=C4)NC(=O)C=C)N(C)CCN(C)C)OC

> <PUBCHEM_OPENEYE_CAN_SMILES>
CN1C=C(C2=CC=CC=C21)C3=NC(=NC=C3)NC4=C(C=C(C(=C4)NC(=O)C=C)N(C)CCN(C)C)OC

> <PUBCHEM_OPENEYE_ISO_SMILES>
CN1C=C(C2=CC=CC=C21)C3=NC(=NC=C3)NC4=C(C=C(C(=C4)NC(=O)C=C)N(C)CCN(C)C)OC

> <PUBCHEM_CACTVS_TPSA>
87.6

> <PUBCHEM_MONOISOTOPIC_WEIGHT>
499.26957332

> <PUBCHEM_TOTAL_CHARGE>
0

> <PUBCHEM_HEAVY_ATOM_COUNT>
37

> <PUBCHEM_ATOM_DEF_STEREO_COUNT>
0

> <PUBCHEM_ATOM_UDEF_STEREO_COUNT>
0

> <PUBCHEM_BOND_DEF_STEREO_COUNT>
0

> <PUBCHEM_BOND_UDEF_STEREO_COUNT>
0

> <PUBCHEM_ISOTOPIC_ATOM_COUNT>
0

> <PUBCHEM_COMPONENT_COUNT>
1

> <PUBCHEM_CACTVS_TAUTO_COUNT>
-1

> <PUBCHEM_COORDINATE_TYPE>
1
5
255

> <PUBCHEM_BONDANNOTATIONS>
11  16  8
11  17  8
13  14  8
13  15  8
13  24  8
14  25  8
15  18  8
16  22  8
17  21  8
19  21  8
19  22  8
23  32  8
24  30  8
25  31  8
30  31  8
32  33  8
4  14  8
4  18  8
8  23  8
8  29  8
9  29  8
9  33  8

> <minimizedAffinity>
-6.02997

> <CNNscore>
0.0106093436

> <CNNaffinity>
3.3498477936

> <CNN_VS>
0.0355396867

> <CNNaffinity_variance>
3.6940333843

$$$$
71496458


 39 42  0  0  0  0  0  0  0  0999 V2000
  -18.7827   20.9644   -9.0739 C   0  0  0  0  0  0  0  0  0  0  0  0
  -18.8125   20.0851   -8.5986 C   0  0  0  0  0  0  0  0  0  0  0  0
  -17.9739   21.5473   -8.9966 C   0  0  0  0  0  0  0  0  0  0  0  0
  -17.2247   20.3715   -7.9689 C   0  0  0  0  0  0  0  0  0  0  0  0
  -17.1949   21.2509   -8.4442 C   0  0  0  0  0  0  0  0  0  0  0  0
  -18.0336   19.7886   -8.0461 C   0  0  0  0  0  0  0  0  0  0  0  0
  -19.5402   19.1647   -6.9790 O   0  0  0  0  0  0  0  0  0  0  0  0
  -19.6214   19.5022   -8.6759 N   0  0  0  0  0  0  0  0  0  0  0  0
  -19.9853   19.0420   -7.8660 C   0  0  0  0  0  0  0  0  0  0  0  0
  -19.8974   19.4261   -9.2259 H   0  0  0  0  0  0  0  0  0  0  0  0
  -20.7942   18.4591   -7.9433 C   0  0  0  0  0  0  0  0  0  0  0  0
  -21.5259   18.5269   -7.2651 C   0  0  0  0  0  0  0  0  0  0  0  0
  -16.3860   21.8338   -8.3669 O   0  0  0  0  0  0  0  0  0  0  0  0
  -16.4542   22.8120   -8.5627 C   0  0  0  0  0  0  0  0  0  0  0  0
  -19.5618   21.2608   -9.6264 N   0  0  0  0  0  0  0  0  0  0  0  0
  -20.3045   21.7813   -9.2050 C   0  0  0  0  0  0  0  0  0  0  0  0
  -19.5982   21.0367  -10.6004 C   0  0  0  0  0  0  0  0  0  0  0  0
  -20.3434   21.3885  -11.1668 C   0  0  0  0  0  0  0  0  0  0  0  0
  -20.2852   21.3282  -12.1633 N   0  0  0  0  0  0  0  0  0  0  0  0
  -20.0498   22.1382  -12.7004 C   0  0  0  0  0  0  0  0  0  0  0  0
  -20.4626   20.4578  -12.6228 C   0  0  0  0  0  0  0  0  0  0  0  0
  -16.4457   20.0751   -7.4164 N   0  0  0  0  0  0  0  0  0  0  0  0
  -16.3343   20.3432   -6.8686 H   0  0  0  0  0  0  0  0  0  0  0  0
  -14.8887   19.5432   -7.9576 N   0  0  0  0  0  0  0  0  0  0  0  0
  -16.2047   18.4205   -7.8682 N   0  0  0  0  0  0  0  0  0  0  0  0
  -14.2894   18.8143   -8.2886 C   0  0  0  0  0  0  0  0  0  0  0  0
  -15.8463   19.3463   -7.7474 C   0  0  0  0  0  0  0  0  0  0  0  0
  -14.6476   17.8886   -8.4094 C   0  0  0  0  0  0  0  0  0  0  0  0
  -15.6053   17.6917   -8.1992 C   0  0  0  0  0  0  0  0  0  0  0  0
  -11.9058   19.7525   -8.5860 N   0  0  0  0  0  0  0  0  0  0  0  0
  -12.7102   18.4182   -8.9988 C   0  0  0  0  0  0  0  0  0  0  0  0
  -11.8242   18.8787   -9.0530 C   0  0  0  0  0  0  0  0  0  0  0  0
  -13.3318   19.0113   -8.4988 C   0  0  0  0  0  0  0  0  0  0  0  0
  -12.8357   19.8342   -8.2443 C   0  0  0  0  0  0  0  0  0  0  0  0
  -12.8313   17.5166   -9.4142 C   0  0  0  0  0  0  0  0  0  0  0  0
  -11.0593   18.4376   -9.5226 C   0  0  0  0  0  0  0  0  0  0  0  0
  -11.1791   20.4309   -8.4789 C   0  0  0  0  0  0  0  0  0  0  0  0
  -12.0665   17.0756   -9.8838 C   0  0  0  0  0  0  0  0  0  0  0  0
  -11.1805   17.5361   -9.9380 C   0  0  0  0  0  0  0  0  0  0  0  0
 13  5  1  0
 13 14  1  0
  7  9  2  0
 15 17  1  0
 15  1  1  0
 15 16  1  0
 30 32  1  0
 30 34  1  0
 30 37  1  0
 19 18  1  0
 19 20  1  0
 19 21  1  0
 22  4  1  0
 22 27  1  0
 22 23  1  0
  8  2  1  0
  8  9  1  0
  8 10  1  0
 24 26  2  0
 24 27  1  0
 25 27  2  0
 25 29  1  0
 17 18  1  0
  1  2  2  0
  1  3  1  0
 31 32  2  0
 31 33  1  0
 31 35  1  0
 32 36  1  0
 33 34  2  0
 33 26  1  0
  2  6  1  0
  3  5  2  0
  4  5  1  0
  4  6  2  0
 26 28  1  0
 35 38  2  0
 36 39  2  0
 38 39  1  0
 28 29  2  0
  9 11  1  0
 11 12  2  0
M  END
> <PUBCHEM_COMPOUND_CID>
71496458

> <PUBCHEM_COMPOUND_CANONICALIZED>
1

> <PUBCHEM_CACTVS_COMPLEXITY>
752

> <PUBCHEM_CACTVS_HBOND_ACCEPTOR>
7

> <PUBCHEM_CACTVS_HBOND_DONOR>
2

> <PUBCHEM_CACTVS_ROTATABLE_BOND>
10

> <PUBCHEM_CACTVS_SUBSKEYS>
AAADcfB7sAAAAAAAAAAAAAAAAAAAAWAAAAA8YIAAAAAAAFgB/AAAHgAQAAAADAzBngY/1vfMFACoAzV3dACCiCkxIqAJ2CA/fNiObuLE+duVNChu1BvY6Kew0MMOgECAAgQCECAAgQAECAQgQAAAAAAAAA==

> <PUBCHEM_IUPAC_OPENEYE_NAME>
N-[2-[2-(dimethylamino)ethyl-methyl-amino]-4-methoxy-5-[[4-(1-methylindol-3-yl)pyrimidin-2-yl]amino]phenyl]prop-2-enamide

> <PUBCHEM_IUPAC_CAS_NAME>
N-[2-[2-(dimethylamino)ethyl-methylamino]-4-methoxy-5-[[4-(1-methyl-3-indolyl)-2-pyrimidinyl]amino]phenyl]-2-propenamide

> <PUBCHEM_IUPAC_NAME_MARKUP>
<I>N</I>-[2-[2-(dimethylamino)ethyl-methylamino]-4-methoxy-5-[[4-(1-methylindol-3-yl)pyrimidin-2-yl]amino]phenyl]prop-2-enamide

> <PUBCHEM_IUPAC_NAME>
N-[2-[2-(dimethylamino)ethyl-methylamino]-4-methoxy-5-[[4-(1-methylindol-3-yl)pyrimidin-2-yl]amino]phenyl]prop-2-enamide

> <PUBCHEM_IUPAC_SYSTEMATIC_NAME>
N-[2-[2-(dimethylamino)ethyl-methyl-amino]-4-methoxy-5-[[4-(1-methylindol-3-yl)pyrimidin-2-yl]amino]phenyl]prop-2-enamide

> <PUBCHEM_IUPAC_TRADITIONAL_NAME>
N-[2-[2-(dimethylamino)ethyl-methyl-amino]-4-methoxy-5-[[4-(1-methylindol-3-yl)pyrimidin-2-yl]amino]phenyl]acrylamide

> <PUBCHEM_IUPAC_INCHI>
InChI=1S/C28H33N7O2/c1-7-27(36)30-22-16-23(26(37-6)17-25(22)34(4)15-14-33(2)3)32-28-29-13-12-21(31-28)20-18-35(5)24-11-9-8-10-19(20)24/h7-13,16-18H,1,14-15H2,2-6H3,(H,30,36)(H,29,31,32)

> <PUBCHEM_IUPAC_INCHIKEY>
DUYJMQONPNNFPI-UHFFFAOYSA-N

> <PUBCHEM_XLOGP3_AA>
3.7

> <PUBCHEM_EXACT_MASS>
499.26957332

> <PUBCHEM_MOLECULAR_FORMULA>
C28H33N7O2

> <PUBCHEM_MOLECULAR_WEIGHT>
499.6

> <PUBCHEM_REFERENCE_STANDARDIZATION>
Bypass - this structure was created from CID 78357807

> <PUBCHEM_SMILES>
CN1C=C(C2=CC=CC=C21)C3=NC(=NC=C3)NC4=C(C=C(C(=C4)NC(=O)C=C)N(C)CCN(C)C)OC

> <PUBCHEM_OPENEYE_CAN_SMILES>
CN1C=C(C2=CC=CC=C21)C3=NC(=NC=C3)NC4=C(C=C(C(=C4)NC(=O)C=C)N(C)CCN(C)C)OC

> <PUBCHEM_OPENEYE_ISO_SMILES>
CN1C=C(C2=CC=CC=C21)C3=NC(=NC=C3)NC4=C(C=C(C(=C4)NC(=O)C=C)N(C)CCN(C)C)OC

> <PUBCHEM_CACTVS_TPSA>
87.6

> <PUBCHEM_MONOISOTOPIC_WEIGHT>
499.26957332

> <PUBCHEM_TOTAL_CHARGE>
0

> <PUBCHEM_HEAVY_ATOM_COUNT>
37

> <PUBCHEM_ATOM_DEF_STEREO_COUNT>
0

> <PUBCHEM_ATOM_UDEF_STEREO_COUNT>
0

> <PUBCHEM_BOND_DEF_STEREO_COUNT>
0

> <PUBCHEM_BOND_UDEF_STEREO_COUNT>
0

> <PUBCHEM_ISOTOPIC_ATOM_COUNT>
0

> <PUBCHEM_COMPONENT_COUNT>
1

> <PUBCHEM_CACTVS_TAUTO_COUNT>
-1

> <PUBCHEM_COORDINATE_TYPE>
1
5
255

> <PUBCHEM_BONDANNOTATIONS>
11  16  8
11  17  8
13  14  8
13  15  8
13  24  8
14  25  8
15  18  8
16  22  8
17  21  8
19  21  8
19  22  8
23  32  8
24  30  8
25  31  8
30  31  8
32  33  8
4  14  8
4  18  8
8  23  8
8  29  8
9  29  8
9  33  8

> <minimizedAffinity>
-7.86695

> <CNNscore>
0.0089685479

> <CNNaffinity>
4.0253734589

> <CNN_VS>
0.0361017548

> <CNNaffinity_variance>
2.1155350208

$$$$
