10184653


 36 39  0  0  0  0  0  0  0  0999 V2000
    4.5346    1.0695  -11.3291 N   0  0  0  0  0  0  0  0  0  0  0  0
    3.0493   -0.3523  -10.0726 N   0  0  0  0  0  0  0  0  0  0  0  0
    7.9182   -0.3320  -11.2891 C   0  0  0  0  0  0  0  0  0  0  0  0
    7.7341   -1.4796  -10.5259 C   0  0  0  0  0  0  0  0  0  0  0  0
    6.8380    0.5156  -11.5522 C   0  0  0  0  0  0  0  0  0  0  0  0
    5.3884   -0.9196  -10.2962 C   0  0  0  0  0  0  0  0  0  0  0  0
    5.5616    0.2425  -11.0659 C   0  0  0  0  0  0  0  0  0  0  0  0
    6.4696   -1.7769  -10.0273 C   0  0  0  0  0  0  0  0  0  0  0  0
    4.0995   -1.1587   -9.8279 C   0  0  0  0  0  0  0  0  0  0  0  0
    3.3343    0.7271  -10.8187 C   0  0  0  0  0  0  0  0  0  0  0  0
   10.1185   -1.1069   -8.7400 O   0  0  0  0  0  0  0  0  0  0  0  0
    8.8024   -2.3369  -10.2536 N   0  0  0  0  0  0  0  0  0  0  0  0
    9.8950   -2.1106   -9.4064 C   0  0  0  0  0  0  0  0  0  0  0  0
    8.7630   -3.2301  -10.7404 H   0  0  0  0  0  0  0  0  0  0  0  0
   10.8260   -3.2781   -9.3860 C   0  0  0  0  0  0  0  0  0  0  0  0
   12.1517   -3.0903   -9.3195 C   0  0  0  0  0  0  0  0  0  0  0  0
   13.1405   -4.2172   -9.2863 C   0  0  0  0  0  0  0  0  0  0  0  0
   12.7983   -5.2004   -8.2637 N   0  0  0  0  0  0  0  0  0  0  0  0
   12.8150   -6.5524   -8.8238 C   0  0  0  0  0  0  0  0  0  0  0  0
   13.7216   -5.1075   -7.1317 C   0  0  0  0  0  0  0  0  0  0  0  0
    3.8474   -2.3116   -9.0437 N   0  0  0  0  0  0  0  0  0  0  0  0
    4.6873   -2.8539   -8.8603 H   0  0  0  0  0  0  0  0  0  0  0  0
    1.5881   -6.1000   -6.4390 Cl  0  0  0  0  0  0  0  0  0  0  0  0
   -0.8178   -5.0102   -7.7854 F   0  0  0  0  0  0  0  0  0  0  0  0
    2.6663   -2.9990   -8.7219 C   0  0  0  0  0  0  0  0  0  0  0  0
    2.7063   -4.0819   -7.8435 C   0  0  0  0  0  0  0  0  0  0  0  0
    1.4527   -2.5989   -9.2810 C   0  0  0  0  0  0  0  0  0  0  0  0
    1.5326   -4.7645   -7.5239 C   0  0  0  0  0  0  0  0  0  0  0  0
    0.2790   -3.2817   -8.9615 C   0  0  0  0  0  0  0  0  0  0  0  0
    0.3189   -4.3645   -8.0830 C   0  0  0  0  0  0  0  0  0  0  0  0
    9.1450   -0.0133  -11.7910 O   0  0  0  0  0  0  0  0  0  0  0  0
   11.5018    1.4017  -13.0749 O   0  0  0  0  0  0  0  0  0  0  0  0
    9.4949    1.3662  -11.8146 C   0  0  0  0  0  0  0  0  0  0  0  0
   10.6482    1.6226  -10.8757 C   0  0  0  0  0  0  0  0  0  0  0  0
   10.0976    1.6994  -13.1638 C   0  0  0  0  0  0  0  0  0  0  0  0
   11.8361    1.1684  -11.7002 C   0  0  0  0  0  0  0  0  0  0  0  0
 23 28  1  0
 24 30  1  0
 32 35  1  0
 32 36  1  0
 31 33  1  0
 31  3  1  0
 11 13  2  0
 12  4  1  0
 12 13  1  0
 12 14  1  0
  1  7  2  0
  1 10  1  0
 21  9  1  0
 21 25  1  0
 21 22  1  0
  2  9  1  0
  2 10  2  0
 18 17  1  0
 18 19  1  0
 18 20  1  0
 33 34  1  0
 33 35  1  0
 34 36  1  0
  3  4  1  0
  3  5  2  0
  4  8  2  0
  5  7  1  0
  6  7  1  0
  6  8  1  0
  6  9  2  0
 13 15  1  0
 25 26  2  0
 25 27  1  0
 15 16  2  0
 17 16  1  0
 26 28  1  0
 27 29  2  0
 28 30  2  0
 29 30  1  0
M  END
> <PUBCHEM_COMPOUND_CID>
10184653

> <PUBCHEM_CONFORMER_RMSD>
1

> <PUBCHEM_CONFORMER_DIVERSEORDER>
1
55
19
37
62
57
35
28
53
34
56
41
17
51
59
61
43
13
31
50
33
32
60
25
54
27
8
16
20
12
38
65
9
48
40
7
21
44
18
47
10
29
58
4
45
6
15
11
22
63
30
39
52
23
36
26
46
49
64
14
24
42
3
5
2

> <PUBCHEM_MMFF94_PARTIAL_CHARGES>
42
1 -0.18
10 -0.81
11 0.28
13 0.28
14 0.28
15 0.08
16 0.12
17 -0.15
19 0.31
2 -0.19
20 -0.15
21 0.41
22 0.62
23 0.47
24 0.1
25 -0.14
26 0.41
27 -0.29
28 -0.15
29 -0.15
3 -0.56
30 0.18
31 -0.15
32 0.27
33 0.27
34 0.19
4 -0.36
42 0.15
43 0.15
44 0.37
45 0.4
46 0.15
47 0.15
5 -0.57
50 0.15
51 0.15
52 0.15
53 0.15
6 -0.55
7 -0.62
8 -0.6
9 -0.62

> <PUBCHEM_EFFECTIVE_ROTOR_COUNT>
10

> <PUBCHEM_PHARMACOPHORE_FEATURES>
12
1 10 cation
1 3 acceptor
1 4 acceptor
1 5 acceptor
1 6 donor
1 8 donor
3 7 9 23 cation
3 8 9 21 cation
5 3 11 12 13 14 rings
6 15 16 17 18 19 20 rings
6 24 28 29 30 31 34 rings
6 7 9 18 19 21 23 rings

> <PUBCHEM_HEAVY_ATOM_COUNT>
34

> <PUBCHEM_ATOM_DEF_STEREO_COUNT>
1

> <PUBCHEM_ATOM_UDEF_STEREO_COUNT>
0

> <PUBCHEM_BOND_DEF_STEREO_COUNT>
1

> <PUBCHEM_BOND_UDEF_STEREO_COUNT>
0

> <PUBCHEM_ISOTOPIC_ATOM_COUNT>
0

> <PUBCHEM_COMPONENT_COUNT>
1

> <PUBCHEM_CACTVS_TAUTO_COUNT>
6

> <PUBCHEM_CONFORMER_ID>
009B67CD00000001

> <PUBCHEM_MMFF94_ENERGY>
118.3863

> <PUBCHEM_FEATURE_SELFOVERLAP>
61.069

> <PUBCHEM_SHAPE_FINGERPRINT>
10050765 1 18409731725397260590
102385 1 18338237050937012855
10581848 127 18267048157042201945
10675989 125 17765712421274760985
10816530 23 18120663422938000737
10939801 23 17974850889678323372
12107183 9 18190160323388426594
12741549 16 17460587263948438879
12788726 201 18115875276836333234
12925494 130 18339077065050983644
13140716 1 17687186800226601262
13383665 225 18190204393246121460
13540713 4 18271814480219722286
14028597 1 17603577578055265275
14068700 686 18341337759526122742
14190465 44 18336823074577052925
14294032 229 18338254728900680980
14394314 77 17618513515589478757
14395042 24 18187930642324558101
14790565 3 18049448033442953445
15400415 2 17976265634705014989
15439362 3 18123748656634030244
19309040 13 18059285444874715076
19427546 62 18049165458685693621
20238998 120 18194403527617411343
23845131 108 18193558857484026109
24771293 8 18127703836151030955
27425 322 17908984301971085317
469060 322 18266194995910524210
550186 72 18265899249300781597
57527585 21 18269534161279665167
6004065 56 17976261562775526063
653340 110 18410019840245178567
9555976 147 18191279677237576986
9777508 108 18337114441401685095
9849439 229 18338796689486291428
9896288 288 18408602587053135962
9961470 85 18268707200098131368

> <PUBCHEM_SHAPE_MULTIPOLES>
651.79
16.98
9.14
1.35
16.63
7.82
0.79
16.53
7.63
-22.03
1.12
1.11
0.38
1.78

> <PUBCHEM_SHAPE_SELFOVERLAP>
1393.544

> <PUBCHEM_SHAPE_VOLUME>
363.9

> <PUBCHEM_COORDINATE_TYPE>
2
5
10

> <minimizedAffinity>
-7.80646

> <CNNscore>
0.6837834120

> <CNNaffinity>
7.3960742950

> <CNN_VS>
5.0573129654

> <CNNaffinity_variance>
0.0033688750

$$$$
10184653


 36 39  0  0  0  0  0  0  0  0999 V2000
    1.8120    0.2151  -10.9071 N   0  0  0  0  0  0  0  0  0  0  0  0
    4.1282    0.6674  -11.3941 N   0  0  0  0  0  0  0  0  0  0  0  0
    1.5708   -2.4401   -8.3959 C   0  0  0  0  0  0  0  0  0  0  0  0
    2.9117   -2.7241   -8.1629 C   0  0  0  0  0  0  0  0  0  0  0  0
    1.2136   -1.4522   -9.3185 C   0  0  0  0  0  0  0  0  0  0  0  0
    3.5256   -1.0274   -9.7794 C   0  0  0  0  0  0  0  0  0  0  0  0
    2.1745   -0.7314  -10.0235 C   0  0  0  0  0  0  0  0  0  0  0  0
    3.8928   -2.0193   -8.8533 C   0  0  0  0  0  0  0  0  0  0  0  0
    4.4563   -0.2867  -10.5025 C   0  0  0  0  0  0  0  0  0  0  0  0
    2.8084    0.8633  -11.5440 C   0  0  0  0  0  0  0  0  0  0  0  0
    4.0004   -5.4862   -8.6096 O   0  0  0  0  0  0  0  0  0  0  0  0
    3.2858   -3.7078   -7.2448 N   0  0  0  0  0  0  0  0  0  0  0  0
    3.7910   -4.9873   -7.5103 C   0  0  0  0  0  0  0  0  0  0  0  0
    3.1691   -3.4423   -6.2690 H   0  0  0  0  0  0  0  0  0  0  0  0
    4.0700   -5.7403   -6.2512 C   0  0  0  0  0  0  0  0  0  0  0  0
    4.4622   -5.0937   -5.1443 C   0  0  0  0  0  0  0  0  0  0  0  0
    4.7497   -5.7871   -3.8460 C   0  0  0  0  0  0  0  0  0  0  0  0
    5.4861   -7.0297   -4.0538 N   0  0  0  0  0  0  0  0  0  0  0  0
    6.8611   -6.9000   -3.5696 C   0  0  0  0  0  0  0  0  0  0  0  0
    4.8140   -8.1439   -3.3835 C   0  0  0  0  0  0  0  0  0  0  0  0
    5.8389   -0.5297  -10.3102 N   0  0  0  0  0  0  0  0  0  0  0  0
    6.0514   -0.8777   -9.3792 H   0  0  0  0  0  0  0  0  0  0  0  0
    7.8744    2.4651  -13.9337 Cl  0  0  0  0  0  0  0  0  0  0  0  0
   10.3469    1.0564  -13.1019 F   0  0  0  0  0  0  0  0  0  0  0  0
    6.9800   -0.1245  -11.0209 C   0  0  0  0  0  0  0  0  0  0  0  0
    6.8755    0.8542  -12.0094 C   0  0  0  0  0  0  0  0  0  0  0  0
    8.2182   -0.7011  -10.7383 C   0  0  0  0  0  0  0  0  0  0  0  0
    8.0094    1.2566  -12.7151 C   0  0  0  0  0  0  0  0  0  0  0  0
    9.3521   -0.2988  -11.4443 C   0  0  0  0  0  0  0  0  0  0  0  0
    9.2477    0.6800  -12.4326 C   0  0  0  0  0  0  0  0  0  0  0  0
    0.5865   -3.1137   -7.7357 O   0  0  0  0  0  0  0  0  0  0  0  0
   -1.8748   -4.7324   -7.0099 O   0  0  0  0  0  0  0  0  0  0  0  0
   -0.1013   -4.1271   -8.4610 C   0  0  0  0  0  0  0  0  0  0  0  0
    0.2021   -5.4818   -7.8694 C   0  0  0  0  0  0  0  0  0  0  0  0
   -1.5887   -3.9911   -8.2087 C   0  0  0  0  0  0  0  0  0  0  0  0
   -0.7257   -5.5204   -6.6715 C   0  0  0  0  0  0  0  0  0  0  0  0
 23 28  1  0
 24 30  1  0
 32 35  1  0
 32 36  1  0
 31 33  1  0
 31  3  1  0
 11 13  2  0
 12  4  1  0
 12 13  1  0
 12 14  1  0
  1  7  2  0
  1 10  1  0
 21  9  1  0
 21 25  1  0
 21 22  1  0
  2  9  1  0
  2 10  2  0
 18 17  1  0
 18 19  1  0
 18 20  1  0
 33 34  1  0
 33 35  1  0
 34 36  1  0
  3  4  1  0
  3  5  2  0
  4  8  2  0
  5  7  1  0
  6  7  1  0
  6  8  1  0
  6  9  2  0
 13 15  1  0
 25 26  2  0
 25 27  1  0
 15 16  2  0
 17 16  1  0
 26 28  1  0
 27 29  2  0
 28 30  2  0
 29 30  1  0
M  END
> <PUBCHEM_COMPOUND_CID>
10184653

> <PUBCHEM_CONFORMER_RMSD>
1

> <PUBCHEM_CONFORMER_DIVERSEORDER>
1
55
19
37
62
57
35
28
53
34
56
41
17
51
59
61
43
13
31
50
33
32
60
25
54
27
8
16
20
12
38
65
9
48
40
7
21
44
18
47
10
29
58
4
45
6
15
11
22
63
30
39
52
23
36
26
46
49
64
14
24
42
3
5
2

> <PUBCHEM_MMFF94_PARTIAL_CHARGES>
42
1 -0.18
10 -0.81
11 0.28
13 0.28
14 0.28
15 0.08
16 0.12
17 -0.15
19 0.31
2 -0.19
20 -0.15
21 0.41
22 0.62
23 0.47
24 0.1
25 -0.14
26 0.41
27 -0.29
28 -0.15
29 -0.15
3 -0.56
30 0.18
31 -0.15
32 0.27
33 0.27
34 0.19
4 -0.36
42 0.15
43 0.15
44 0.37
45 0.4
46 0.15
47 0.15
5 -0.57
50 0.15
51 0.15
52 0.15
53 0.15
6 -0.55
7 -0.62
8 -0.6
9 -0.62

> <PUBCHEM_EFFECTIVE_ROTOR_COUNT>
10

> <PUBCHEM_PHARMACOPHORE_FEATURES>
12
1 10 cation
1 3 acceptor
1 4 acceptor
1 5 acceptor
1 6 donor
1 8 donor
3 7 9 23 cation
3 8 9 21 cation
5 3 11 12 13 14 rings
6 15 16 17 18 19 20 rings
6 24 28 29 30 31 34 rings
6 7 9 18 19 21 23 rings

> <PUBCHEM_HEAVY_ATOM_COUNT>
34

> <PUBCHEM_ATOM_DEF_STEREO_COUNT>
1

> <PUBCHEM_ATOM_UDEF_STEREO_COUNT>
0

> <PUBCHEM_BOND_DEF_STEREO_COUNT>
1

> <PUBCHEM_BOND_UDEF_STEREO_COUNT>
0

> <PUBCHEM_ISOTOPIC_ATOM_COUNT>
0

> <PUBCHEM_COMPONENT_COUNT>
1

> <PUBCHEM_CACTVS_TAUTO_COUNT>
6

> <PUBCHEM_CONFORMER_ID>
009B67CD00000001

> <PUBCHEM_MMFF94_ENERGY>
118.3863

> <PUBCHEM_FEATURE_SELFOVERLAP>
61.069

> <PUBCHEM_SHAPE_FINGERPRINT>
10050765 1 18409731725397260590
102385 1 18338237050937012855
10581848 127 18267048157042201945
10675989 125 17765712421274760985
10816530 23 18120663422938000737
10939801 23 17974850889678323372
12107183 9 18190160323388426594
12741549 16 17460587263948438879
12788726 201 18115875276836333234
12925494 130 18339077065050983644
13140716 1 17687186800226601262
13383665 225 18190204393246121460
13540713 4 18271814480219722286
14028597 1 17603577578055265275
14068700 686 18341337759526122742
14190465 44 18336823074577052925
14294032 229 18338254728900680980
14394314 77 17618513515589478757
14395042 24 18187930642324558101
14790565 3 18049448033442953445
15400415 2 17976265634705014989
15439362 3 18123748656634030244
19309040 13 18059285444874715076
19427546 62 18049165458685693621
20238998 120 18194403527617411343
23845131 108 18193558857484026109
24771293 8 18127703836151030955
27425 322 17908984301971085317
469060 322 18266194995910524210
550186 72 18265899249300781597
57527585 21 18269534161279665167
6004065 56 17976261562775526063
653340 110 18410019840245178567
9555976 147 18191279677237576986
9777508 108 18337114441401685095
9849439 229 18338796689486291428
9896288 288 18408602587053135962
9961470 85 18268707200098131368

> <PUBCHEM_SHAPE_MULTIPOLES>
651.79
16.98
9.14
1.35
16.63
7.82
0.79
16.53
7.63
-22.03
1.12
1.11
0.38
1.78

> <PUBCHEM_SHAPE_SELFOVERLAP>
1393.544

> <PUBCHEM_SHAPE_VOLUME>
363.9

> <PUBCHEM_COORDINATE_TYPE>
2
5
10

> <minimizedAffinity>
-8.96515

> <CNNscore>
0.5506595969

> <CNNaffinity>
7.5488009453

> <CNN_VS>
4.1568198204

> <CNNaffinity_variance>
0.2285720557

$$$$
10184653


 36 39  0  0  0  0  0  0  0  0999 V2000
    1.9531    0.2095  -10.8126 N   0  0  0  0  0  0  0  0  0  0  0  0
    4.2968    0.3853  -11.3443 N   0  0  0  0  0  0  0  0  0  0  0  0
    1.4260   -2.5213   -8.4295 C   0  0  0  0  0  0  0  0  0  0  0  0
    2.7237   -2.9873   -8.2500 C   0  0  0  0  0  0  0  0  0  0  0  0
    1.1793   -1.4485   -9.2913 C   0  0  0  0  0  0  0  0  0  0  0  0
    3.5160   -1.3008   -9.7982 C   0  0  0  0  0  0  0  0  0  0  0  0
    2.2096   -0.8210   -9.9877 C   0  0  0  0  0  0  0  0  0  0  0  0
    3.7721   -2.3790   -8.9333 C   0  0  0  0  0  0  0  0  0  0  0  0
    4.5183   -0.6487  -10.5109 C   0  0  0  0  0  0  0  0  0  0  0  0
    3.0105    0.7569  -11.4456 C   0  0  0  0  0  0  0  0  0  0  0  0
    2.6700   -3.1356   -5.2519 O   0  0  0  0  0  0  0  0  0  0  0  0
    2.9875   -4.0579   -7.3930 N   0  0  0  0  0  0  0  0  0  0  0  0
    2.9471   -4.0714   -5.9927 C   0  0  0  0  0  0  0  0  0  0  0  0
    3.2378   -4.9252   -7.8639 H   0  0  0  0  0  0  0  0  0  0  0  0
    3.2954   -5.4167   -5.4456 C   0  0  0  0  0  0  0  0  0  0  0  0
    4.2562   -5.5469   -4.5199 C   0  0  0  0  0  0  0  0  0  0  0  0
    4.6486   -6.8653   -3.9228 C   0  0  0  0  0  0  0  0  0  0  0  0
    6.0988   -7.0056   -3.8397 N   0  0  0  0  0  0  0  0  0  0  0  0
    6.5679   -8.0489   -4.7525 C   0  0  0  0  0  0  0  0  0  0  0  0
    6.7566   -5.7331   -4.1408 C   0  0  0  0  0  0  0  0  0  0  0  0
    5.8617   -1.0772  -10.3714 N   0  0  0  0  0  0  0  0  0  0  0  0
    5.9957   -1.6999   -9.5793 H   0  0  0  0  0  0  0  0  0  0  0  0
   10.8911   -1.7668  -11.0575 Cl  0  0  0  0  0  0  0  0  0  0  0  0
   10.6099    0.8079  -12.5001 F   0  0  0  0  0  0  0  0  0  0  0  0
    7.0684   -0.6025  -10.9096 C   0  0  0  0  0  0  0  0  0  0  0  0
    8.2444   -1.3328  -10.7376 C   0  0  0  0  0  0  0  0  0  0  0  0
    7.0911    0.5997  -11.6164 C   0  0  0  0  0  0  0  0  0  0  0  0
    9.4430   -0.8610  -11.2727 C   0  0  0  0  0  0  0  0  0  0  0  0
    8.2899    1.0717  -12.1513 C   0  0  0  0  0  0  0  0  0  0  0  0
    9.4658    0.3413  -11.9795 C   0  0  0  0  0  0  0  0  0  0  0  0
    0.3778   -3.0967   -7.7747 O   0  0  0  0  0  0  0  0  0  0  0  0
   -2.0134   -4.7576   -6.9212 O   0  0  0  0  0  0  0  0  0  0  0  0
   -0.3603   -4.0874   -8.4817 C   0  0  0  0  0  0  0  0  0  0  0  0
   -0.0066   -5.4609   -7.9661 C   0  0  0  0  0  0  0  0  0  0  0  0
   -1.8241   -3.9709   -8.1101 C   0  0  0  0  0  0  0  0  0  0  0  0
   -0.8384   -5.5497   -6.7022 C   0  0  0  0  0  0  0  0  0  0  0  0
 23 28  1  0
 24 30  1  0
 32 35  1  0
 32 36  1  0
 31 33  1  0
 31  3  1  0
 11 13  2  0
 12  4  1  0
 12 13  1  0
 12 14  1  0
  1  7  2  0
  1 10  1  0
 21  9  1  0
 21 25  1  0
 21 22  1  0
  2  9  1  0
  2 10  2  0
 18 17  1  0
 18 19  1  0
 18 20  1  0
 33 34  1  0
 33 35  1  0
 34 36  1  0
  3  4  1  0
  3  5  2  0
  4  8  2  0
  5  7  1  0
  6  7  1  0
  6  8  1  0
  6  9  2  0
 13 15  1  0
 25 26  2  0
 25 27  1  0
 15 16  2  0
 17 16  1  0
 26 28  1  0
 27 29  2  0
 28 30  2  0
 29 30  1  0
M  END
> <PUBCHEM_COMPOUND_CID>
10184653

> <PUBCHEM_CONFORMER_RMSD>
1

> <PUBCHEM_CONFORMER_DIVERSEORDER>
1
55
19
37
62
57
35
28
53
34
56
41
17
51
59
61
43
13
31
50
33
32
60
25
54
27
8
16
20
12
38
65
9
48
40
7
21
44
18
47
10
29
58
4
45
6
15
11
22
63
30
39
52
23
36
26
46
49
64
14
24
42
3
5
2

> <PUBCHEM_MMFF94_PARTIAL_CHARGES>
42
1 -0.18
10 -0.81
11 0.28
13 0.28
14 0.28
15 0.08
16 0.12
17 -0.15
19 0.31
2 -0.19
20 -0.15
21 0.41
22 0.62
23 0.47
24 0.1
25 -0.14
26 0.41
27 -0.29
28 -0.15
29 -0.15
3 -0.56
30 0.18
31 -0.15
32 0.27
33 0.27
34 0.19
4 -0.36
42 0.15
43 0.15
44 0.37
45 0.4
46 0.15
47 0.15
5 -0.57
50 0.15
51 0.15
52 0.15
53 0.15
6 -0.55
7 -0.62
8 -0.6
9 -0.62

> <PUBCHEM_EFFECTIVE_ROTOR_COUNT>
10

> <PUBCHEM_PHARMACOPHORE_FEATURES>
12
1 10 cation
1 3 acceptor
1 4 acceptor
1 5 acceptor
1 6 donor
1 8 donor
3 7 9 23 cation
3 8 9 21 cation
5 3 11 12 13 14 rings
6 15 16 17 18 19 20 rings
6 24 28 29 30 31 34 rings
6 7 9 18 19 21 23 rings

> <PUBCHEM_HEAVY_ATOM_COUNT>
34

> <PUBCHEM_ATOM_DEF_STEREO_COUNT>
1

> <PUBCHEM_ATOM_UDEF_STEREO_COUNT>
0

> <PUBCHEM_BOND_DEF_STEREO_COUNT>
1

> <PUBCHEM_BOND_UDEF_STEREO_COUNT>
0

> <PUBCHEM_ISOTOPIC_ATOM_COUNT>
0

> <PUBCHEM_COMPONENT_COUNT>
1

> <PUBCHEM_CACTVS_TAUTO_COUNT>
6

> <PUBCHEM_CONFORMER_ID>
009B67CD00000001

> <PUBCHEM_MMFF94_ENERGY>
118.3863

> <PUBCHEM_FEATURE_SELFOVERLAP>
61.069

> <PUBCHEM_SHAPE_FINGERPRINT>
10050765 1 18409731725397260590
102385 1 18338237050937012855
10581848 127 18267048157042201945
10675989 125 17765712421274760985
10816530 23 18120663422938000737
10939801 23 17974850889678323372
12107183 9 18190160323388426594
12741549 16 17460587263948438879
12788726 201 18115875276836333234
12925494 130 18339077065050983644
13140716 1 17687186800226601262
13383665 225 18190204393246121460
13540713 4 18271814480219722286
14028597 1 17603577578055265275
14068700 686 18341337759526122742
14190465 44 18336823074577052925
14294032 229 18338254728900680980
14394314 77 17618513515589478757
14395042 24 18187930642324558101
14790565 3 18049448033442953445
15400415 2 17976265634705014989
15439362 3 18123748656634030244
19309040 13 18059285444874715076
19427546 62 18049165458685693621
20238998 120 18194403527617411343
23845131 108 18193558857484026109
24771293 8 18127703836151030955
27425 322 17908984301971085317
469060 322 18266194995910524210
550186 72 18265899249300781597
57527585 21 18269534161279665167
6004065 56 17976261562775526063
653340 110 18410019840245178567
9555976 147 18191279677237576986
9777508 108 18337114441401685095
9849439 229 18338796689486291428
9896288 288 18408602587053135962
9961470 85 18268707200098131368

> <PUBCHEM_SHAPE_MULTIPOLES>
651.79
16.98
9.14
1.35
16.63
7.82
0.79
16.53
7.63
-22.03
1.12
1.11
0.38
1.78

> <PUBCHEM_SHAPE_SELFOVERLAP>
1393.544

> <PUBCHEM_SHAPE_VOLUME>
363.9

> <PUBCHEM_COORDINATE_TYPE>
2
5
10

> <minimizedAffinity>
-8.81158

> <CNNscore>
0.3234012723

> <CNNaffinity>
7.3119926453

> <CNN_VS>
2.3647077084

> <CNNaffinity_variance>
0.0997982547

$$$$
10184653


 36 39  0  0  0  0  0  0  0  0999 V2000
    4.8871    0.8924  -11.2305 N   0  0  0  0  0  0  0  0  0  0  0  0
    2.6393    0.0787  -10.9281 N   0  0  0  0  0  0  0  0  0  0  0  0
    7.2829   -1.6614  -10.1570 C   0  0  0  0  0  0  0  0  0  0  0  0
    6.4340   -2.6848   -9.7506 C   0  0  0  0  0  0  0  0  0  0  0  0
    6.7531   -0.4660  -10.6518 C   0  0  0  0  0  0  0  0  0  0  0  0
    4.5313   -1.3053  -10.3386 C   0  0  0  0  0  0  0  0  0  0  0  0
    5.3785   -0.2642  -10.7523 C   0  0  0  0  0  0  0  0  0  0  0  0
    5.0565   -2.5103   -9.8400 C   0  0  0  0  0  0  0  0  0  0  0  0
    3.1648   -1.0666  -10.4538 C   0  0  0  0  0  0  0  0  0  0  0  0
    3.5444    1.0009  -11.2929 C   0  0  0  0  0  0  0  0  0  0  0  0
    7.3509   -3.4099   -6.9853 O   0  0  0  0  0  0  0  0  0  0  0  0
    6.9467   -3.8851   -9.2539 N   0  0  0  0  0  0  0  0  0  0  0  0
    7.3612   -4.1700   -7.9464 C   0  0  0  0  0  0  0  0  0  0  0  0
    7.0199   -4.6313   -9.9427 H   0  0  0  0  0  0  0  0  0  0  0  0
    7.8500   -5.5753   -7.8184 C   0  0  0  0  0  0  0  0  0  0  0  0
    7.3538   -6.3849   -6.8720 C   0  0  0  0  0  0  0  0  0  0  0  0
    7.7933   -7.8076   -6.6948 C   0  0  0  0  0  0  0  0  0  0  0  0
    7.8667   -8.1740   -5.2842 N   0  0  0  0  0  0  0  0  0  0  0  0
    8.5454   -7.1295   -4.5160 C   0  0  0  0  0  0  0  0  0  0  0  0
    6.5273   -8.4130   -4.7445 C   0  0  0  0  0  0  0  0  0  0  0  0
    2.2477   -2.0706  -10.0555 N   0  0  0  0  0  0  0  0  0  0  0  0
    1.5788   -2.3040  -10.7844 H   0  0  0  0  0  0  0  0  0  0  0  0
   -1.1348   -4.6512   -7.2023 Cl  0  0  0  0  0  0  0  0  0  0  0  0
    0.8765   -4.1039   -5.0940 F   0  0  0  0  0  0  0  0  0  0  0  0
    1.8959   -2.5879   -8.7986 C   0  0  0  0  0  0  0  0  0  0  0  0
    0.6961   -3.2816   -8.6403 C   0  0  0  0  0  0  0  0  0  0  0  0
    2.7465   -2.4078   -7.7080 C   0  0  0  0  0  0  0  0  0  0  0  0
    0.3471   -3.7956   -7.3915 C   0  0  0  0  0  0  0  0  0  0  0  0
    2.3973   -2.9216   -6.4590 C   0  0  0  0  0  0  0  0  0  0  0  0
    1.1977   -3.6155   -6.3007 C   0  0  0  0  0  0  0  0  0  0  0  0
    8.6368   -1.8021  -10.0812 O   0  0  0  0  0  0  0  0  0  0  0  0
   11.4590   -1.8201  -11.1946 O   0  0  0  0  0  0  0  0  0  0  0  0
    9.4270   -0.7460  -10.6164 C   0  0  0  0  0  0  0  0  0  0  0  0
   10.4865   -0.3387   -9.6219 C   0  0  0  0  0  0  0  0  0  0  0  0
   10.2539   -1.2825  -11.7665 C   0  0  0  0  0  0  0  0  0  0  0  0
   11.5396   -1.4100   -9.8230 C   0  0  0  0  0  0  0  0  0  0  0  0
 23 28  1  0
 24 30  1  0
 32 35  1  0
 32 36  1  0
 31 33  1  0
 31  3  1  0
 11 13  2  0
 12  4  1  0
 12 13  1  0
 12 14  1  0
  1  7  2  0
  1 10  1  0
 21  9  1  0
 21 25  1  0
 21 22  1  0
  2  9  1  0
  2 10  2  0
 18 17  1  0
 18 19  1  0
 18 20  1  0
 33 34  1  0
 33 35  1  0
 34 36  1  0
  3  4  1  0
  3  5  2  0
  4  8  2  0
  5  7  1  0
  6  7  1  0
  6  8  1  0
  6  9  2  0
 13 15  1  0
 25 26  2  0
 25 27  1  0
 15 16  2  0
 17 16  1  0
 26 28  1  0
 27 29  2  0
 28 30  2  0
 29 30  1  0
M  END
> <PUBCHEM_COMPOUND_CID>
10184653

> <PUBCHEM_CONFORMER_RMSD>
1

> <PUBCHEM_CONFORMER_DIVERSEORDER>
1
55
19
37
62
57
35
28
53
34
56
41
17
51
59
61
43
13
31
50
33
32
60
25
54
27
8
16
20
12
38
65
9
48
40
7
21
44
18
47
10
29
58
4
45
6
15
11
22
63
30
39
52
23
36
26
46
49
64
14
24
42
3
5
2

> <PUBCHEM_MMFF94_PARTIAL_CHARGES>
42
1 -0.18
10 -0.81
11 0.28
13 0.28
14 0.28
15 0.08
16 0.12
17 -0.15
19 0.31
2 -0.19
20 -0.15
21 0.41
22 0.62
23 0.47
24 0.1
25 -0.14
26 0.41
27 -0.29
28 -0.15
29 -0.15
3 -0.56
30 0.18
31 -0.15
32 0.27
33 0.27
34 0.19
4 -0.36
42 0.15
43 0.15
44 0.37
45 0.4
46 0.15
47 0.15
5 -0.57
50 0.15
51 0.15
52 0.15
53 0.15
6 -0.55
7 -0.62
8 -0.6
9 -0.62

> <PUBCHEM_EFFECTIVE_ROTOR_COUNT>
10

> <PUBCHEM_PHARMACOPHORE_FEATURES>
12
1 10 cation
1 3 acceptor
1 4 acceptor
1 5 acceptor
1 6 donor
1 8 donor
3 7 9 23 cation
3 8 9 21 cation
5 3 11 12 13 14 rings
6 15 16 17 18 19 20 rings
6 24 28 29 30 31 34 rings
6 7 9 18 19 21 23 rings

> <PUBCHEM_HEAVY_ATOM_COUNT>
34

> <PUBCHEM_ATOM_DEF_STEREO_COUNT>
1

> <PUBCHEM_ATOM_UDEF_STEREO_COUNT>
0

> <PUBCHEM_BOND_DEF_STEREO_COUNT>
1

> <PUBCHEM_BOND_UDEF_STEREO_COUNT>
0

> <PUBCHEM_ISOTOPIC_ATOM_COUNT>
0

> <PUBCHEM_COMPONENT_COUNT>
1

> <PUBCHEM_CACTVS_TAUTO_COUNT>
6

> <PUBCHEM_CONFORMER_ID>
009B67CD00000001

> <PUBCHEM_MMFF94_ENERGY>
118.3863

> <PUBCHEM_FEATURE_SELFOVERLAP>
61.069

> <PUBCHEM_SHAPE_FINGERPRINT>
10050765 1 18409731725397260590
102385 1 18338237050937012855
10581848 127 18267048157042201945
10675989 125 17765712421274760985
10816530 23 18120663422938000737
10939801 23 17974850889678323372
12107183 9 18190160323388426594
12741549 16 17460587263948438879
12788726 201 18115875276836333234
12925494 130 18339077065050983644
13140716 1 17687186800226601262
13383665 225 18190204393246121460
13540713 4 18271814480219722286
14028597 1 17603577578055265275
14068700 686 18341337759526122742
14190465 44 18336823074577052925
14294032 229 18338254728900680980
14394314 77 17618513515589478757
14395042 24 18187930642324558101
14790565 3 18049448033442953445
15400415 2 17976265634705014989
15439362 3 18123748656634030244
19309040 13 18059285444874715076
19427546 62 18049165458685693621
20238998 120 18194403527617411343
23845131 108 18193558857484026109
24771293 8 18127703836151030955
27425 322 17908984301971085317
469060 322 18266194995910524210
550186 72 18265899249300781597
57527585 21 18269534161279665167
6004065 56 17976261562775526063
653340 110 18410019840245178567
9555976 147 18191279677237576986
9777508 108 18337114441401685095
9849439 229 18338796689486291428
9896288 288 18408602587053135962
9961470 85 18268707200098131368

> <PUBCHEM_SHAPE_MULTIPOLES>
651.79
16.98
9.14
1.35
16.63
7.82
0.79
16.53
7.63
-22.03
1.12
1.11
0.38
1.78

> <PUBCHEM_SHAPE_SELFOVERLAP>
1393.544

> <PUBCHEM_SHAPE_VOLUME>
363.9

> <PUBCHEM_COORDINATE_TYPE>
2
5
10

> <minimizedAffinity>
-7.73887

> <CNNscore>
0.3108963966

> <CNNaffinity>
6.9251422882

> <CNN_VS>
2.1530017853

> <CNNaffinity_variance>
0.4970333576

$$$$
10184653


 36 39  0  0  0  0  0  0  0  0999 V2000
   -1.0078   -3.6225   -8.3982 N   0  0  0  0  0  0  0  0  0  0  0  0
   -0.5456   -5.4544   -6.9026 N   0  0  0  0  0  0  0  0  0  0  0  0
    2.1366   -2.2287   -9.6570 C   0  0  0  0  0  0  0  0  0  0  0  0
    3.0724   -3.0375   -9.0220 C   0  0  0  0  0  0  0  0  0  0  0  0
    0.7708   -2.4340   -9.4405 C   0  0  0  0  0  0  0  0  0  0  0  0
    1.2648   -4.2503   -7.9588 C   0  0  0  0  0  0  0  0  0  0  0  0
    0.3099   -3.4400   -8.5945 C   0  0  0  0  0  0  0  0  0  0  0  0
    2.6400   -4.0501   -8.1714 C   0  0  0  0  0  0  0  0  0  0  0  0
    0.7662   -5.2442   -7.1213 C   0  0  0  0  0  0  0  0  0  0  0  0
   -1.3640   -4.6199   -7.5635 C   0  0  0  0  0  0  0  0  0  0  0  0
    5.1842   -4.9542   -9.9602 O   0  0  0  0  0  0  0  0  0  0  0  0
    4.4405   -2.8458   -9.2271 N   0  0  0  0  0  0  0  0  0  0  0  0
    5.3853   -3.7811   -9.6689 C   0  0  0  0  0  0  0  0  0  0  0  0
    4.7709   -1.9043   -9.0251 H   0  0  0  0  0  0  0  0  0  0  0  0
    6.7506   -3.1828   -9.7592 C   0  0  0  0  0  0  0  0  0  0  0  0
    6.9109   -1.9076  -10.1403 C   0  0  0  0  0  0  0  0  0  0  0  0
    8.2513   -1.2430  -10.2430 C   0  0  0  0  0  0  0  0  0  0  0  0
    9.3208   -2.2191  -10.4253 N   0  0  0  0  0  0  0  0  0  0  0  0
    9.9907   -2.0142  -11.7103 C   0  0  0  0  0  0  0  0  0  0  0  0
   10.2868   -2.1342   -9.3290 C   0  0  0  0  0  0  0  0  0  0  0  0
    1.6695   -6.1010   -6.4447 N   0  0  0  0  0  0  0  0  0  0  0  0
    1.2870   -7.0291   -6.2855 H   0  0  0  0  0  0  0  0  0  0  0  0
    6.1823   -3.6982   -6.1247 Cl  0  0  0  0  0  0  0  0  0  0  0  0
    6.2767   -5.1362   -3.5338 F   0  0  0  0  0  0  0  0  0  0  0  0
    2.8398   -5.8536   -5.7096 C   0  0  0  0  0  0  0  0  0  0  0  0
    3.8172   -4.9993   -6.2202 C   0  0  0  0  0  0  0  0  0  0  0  0
    3.0250   -6.4625   -4.4685 C   0  0  0  0  0  0  0  0  0  0  0  0
    4.9797   -4.7537   -5.4895 C   0  0  0  0  0  0  0  0  0  0  0  0
    4.1877   -6.2169   -3.7378 C   0  0  0  0  0  0  0  0  0  0  0  0
    5.1650   -5.3625   -4.2483 C   0  0  0  0  0  0  0  0  0  0  0  0
    2.5290   -1.2280  -10.4955 O   0  0  0  0  0  0  0  0  0  0  0  0
    2.9269    1.4676  -11.8299 O   0  0  0  0  0  0  0  0  0  0  0  0
    2.6593    0.0728   -9.9325 C   0  0  0  0  0  0  0  0  0  0  0  0
    4.0982    0.5229   -9.9997 C   0  0  0  0  0  0  0  0  0  0  0  0
    1.9664    1.0728  -10.8350 C   0  0  0  0  0  0  0  0  0  0  0  0
    4.2193    0.9860  -11.4378 C   0  0  0  0  0  0  0  0  0  0  0  0
 23 28  1  0
 24 30  1  0
 32 35  1  0
 32 36  1  0
 31 33  1  0
 31  3  1  0
 11 13  2  0
 12  4  1  0
 12 13  1  0
 12 14  1  0
  1  7  2  0
  1 10  1  0
 21  9  1  0
 21 25  1  0
 21 22  1  0
  2  9  1  0
  2 10  2  0
 18 17  1  0
 18 19  1  0
 18 20  1  0
 33 34  1  0
 33 35  1  0
 34 36  1  0
  3  4  1  0
  3  5  2  0
  4  8  2  0
  5  7  1  0
  6  7  1  0
  6  8  1  0
  6  9  2  0
 13 15  1  0
 25 26  2  0
 25 27  1  0
 15 16  2  0
 17 16  1  0
 26 28  1  0
 27 29  2  0
 28 30  2  0
 29 30  1  0
M  END
> <PUBCHEM_COMPOUND_CID>
10184653

> <PUBCHEM_CONFORMER_RMSD>
1

> <PUBCHEM_CONFORMER_DIVERSEORDER>
1
55
19
37
62
57
35
28
53
34
56
41
17
51
59
61
43
13
31
50
33
32
60
25
54
27
8
16
20
12
38
65
9
48
40
7
21
44
18
47
10
29
58
4
45
6
15
11
22
63
30
39
52
23
36
26
46
49
64
14
24
42
3
5
2

> <PUBCHEM_MMFF94_PARTIAL_CHARGES>
42
1 -0.18
10 -0.81
11 0.28
13 0.28
14 0.28
15 0.08
16 0.12
17 -0.15
19 0.31
2 -0.19
20 -0.15
21 0.41
22 0.62
23 0.47
24 0.1
25 -0.14
26 0.41
27 -0.29
28 -0.15
29 -0.15
3 -0.56
30 0.18
31 -0.15
32 0.27
33 0.27
34 0.19
4 -0.36
42 0.15
43 0.15
44 0.37
45 0.4
46 0.15
47 0.15
5 -0.57
50 0.15
51 0.15
52 0.15
53 0.15
6 -0.55
7 -0.62
8 -0.6
9 -0.62

> <PUBCHEM_EFFECTIVE_ROTOR_COUNT>
10

> <PUBCHEM_PHARMACOPHORE_FEATURES>
12
1 10 cation
1 3 acceptor
1 4 acceptor
1 5 acceptor
1 6 donor
1 8 donor
3 7 9 23 cation
3 8 9 21 cation
5 3 11 12 13 14 rings
6 15 16 17 18 19 20 rings
6 24 28 29 30 31 34 rings
6 7 9 18 19 21 23 rings

> <PUBCHEM_HEAVY_ATOM_COUNT>
34

> <PUBCHEM_ATOM_DEF_STEREO_COUNT>
1

> <PUBCHEM_ATOM_UDEF_STEREO_COUNT>
0

> <PUBCHEM_BOND_DEF_STEREO_COUNT>
1

> <PUBCHEM_BOND_UDEF_STEREO_COUNT>
0

> <PUBCHEM_ISOTOPIC_ATOM_COUNT>
0

> <PUBCHEM_COMPONENT_COUNT>
1

> <PUBCHEM_CACTVS_TAUTO_COUNT>
6

> <PUBCHEM_CONFORMER_ID>
009B67CD00000001

> <PUBCHEM_MMFF94_ENERGY>
118.3863

> <PUBCHEM_FEATURE_SELFOVERLAP>
61.069

> <PUBCHEM_SHAPE_FINGERPRINT>
10050765 1 18409731725397260590
102385 1 18338237050937012855
10581848 127 18267048157042201945
10675989 125 17765712421274760985
10816530 23 18120663422938000737
10939801 23 17974850889678323372
12107183 9 18190160323388426594
12741549 16 17460587263948438879
12788726 201 18115875276836333234
12925494 130 18339077065050983644
13140716 1 17687186800226601262
13383665 225 18190204393246121460
13540713 4 18271814480219722286
14028597 1 17603577578055265275
14068700 686 18341337759526122742
14190465 44 18336823074577052925
14294032 229 18338254728900680980
14394314 77 17618513515589478757
14395042 24 18187930642324558101
14790565 3 18049448033442953445
15400415 2 17976265634705014989
15439362 3 18123748656634030244
19309040 13 18059285444874715076
19427546 62 18049165458685693621
20238998 120 18194403527617411343
23845131 108 18193558857484026109
24771293 8 18127703836151030955
27425 322 17908984301971085317
469060 322 18266194995910524210
550186 72 18265899249300781597
57527585 21 18269534161279665167
6004065 56 17976261562775526063
653340 110 18410019840245178567
9555976 147 18191279677237576986
9777508 108 18337114441401685095
9849439 229 18338796689486291428
9896288 288 18408602587053135962
9961470 85 18268707200098131368

> <PUBCHEM_SHAPE_MULTIPOLES>
651.79
16.98
9.14
1.35
16.63
7.82
0.79
16.53
7.63
-22.03
1.12
1.11
0.38
1.78

> <PUBCHEM_SHAPE_SELFOVERLAP>
1393.544

> <PUBCHEM_SHAPE_VOLUME>
363.9

> <PUBCHEM_COORDINATE_TYPE>
2
5
10

> <minimizedAffinity>
-8.70126

> <CNNscore>
0.2877876759

> <CNNaffinity>
7.5153260231

> <CNN_VS>
2.1628181934

> <CNNaffinity_variance>
0.0905346274

$$$$
10184653


 36 39  0  0  0  0  0  0  0  0999 V2000
    1.9191   18.1235    4.4467 N   0  0  0  0  0  0  0  0  0  0  0  0
    0.5090   18.6363    6.3322 N   0  0  0  0  0  0  0  0  0  0  0  0
    4.8430   20.3292    4.4516 C   0  0  0  0  0  0  0  0  0  0  0  0
    4.6078   21.0990    5.5853 C   0  0  0  0  0  0  0  0  0  0  0  0
    3.9344   19.3340    4.0792 C   0  0  0  0  0  0  0  0  0  0  0  0
    2.5552   19.8691    5.9634 C   0  0  0  0  0  0  0  0  0  0  0  0
    2.7817   19.0849    4.8204 C   0  0  0  0  0  0  0  0  0  0  0  0
    3.4641   20.8717    6.3444 C   0  0  0  0  0  0  0  0  0  0  0  0
    1.3933   19.5909    6.6778 C   0  0  0  0  0  0  0  0  0  0  0  0
    0.8300   17.9510    5.2230 C   0  0  0  0  0  0  0  0  0  0  0  0
    4.1384   23.9971    6.2134 O   0  0  0  0  0  0  0  0  0  0  0  0
    5.5050   22.0972    5.9712 N   0  0  0  0  0  0  0  0  0  0  0  0
    5.2298   23.4416    6.2536 C   0  0  0  0  0  0  0  0  0  0  0  0
    6.4721   21.7892    6.0512 H   0  0  0  0  0  0  0  0  0  0  0  0
    6.4664   24.1881    6.6326 C   0  0  0  0  0  0  0  0  0  0  0  0
    7.5836   24.0701    5.9012 C   0  0  0  0  0  0  0  0  0  0  0  0
    8.8554   24.7977    6.2204 C   0  0  0  0  0  0  0  0  0  0  0  0
    9.8040   23.9373    6.9200 N   0  0  0  0  0  0  0  0  0  0  0  0
   10.8655   23.4980    6.0135 C   0  0  0  0  0  0  0  0  0  0  0  0
   10.3760   24.6336    8.0734 C   0  0  0  0  0  0  0  0  0  0  0  0
    1.0969   20.3414    7.8425 N   0  0  0  0  0  0  0  0  0  0  0  0
    1.5818   19.9967    8.6667 H   0  0  0  0  0  0  0  0  0  0  0  0
   -2.7239   21.7208   10.9633 Cl  0  0  0  0  0  0  0  0  0  0  0  0
   -2.9244   23.9554    9.0254 F   0  0  0  0  0  0  0  0  0  0  0  0
    0.0756   21.2557    8.1462 C   0  0  0  0  0  0  0  0  0  0  0  0
   -0.7250   21.0594    9.2715 C   0  0  0  0  0  0  0  0  0  0  0  0
   -0.1385   22.3605    7.3220 C   0  0  0  0  0  0  0  0  0  0  0  0
   -1.7394   21.9681    9.5730 C   0  0  0  0  0  0  0  0  0  0  0  0
   -1.1532   23.2691    7.6234 C   0  0  0  0  0  0  0  0  0  0  0  0
   -1.9536   23.0729    8.7489 C   0  0  0  0  0  0  0  0  0  0  0  0
    5.9540   20.5284    3.6872 O   0  0  0  0  0  0  0  0  0  0  0  0
    7.2924   20.5253    0.9643 O   0  0  0  0  0  0  0  0  0  0  0  0
    5.8336   21.4345    2.5961 C   0  0  0  0  0  0  0  0  0  0  0  0
    7.0627   22.3060    2.5104 C   0  0  0  0  0  0  0  0  0  0  0  0
    5.8997   20.6559    1.2984 C   0  0  0  0  0  0  0  0  0  0  0  0
    8.0529   21.3915    1.8173 C   0  0  0  0  0  0  0  0  0  0  0  0
 23 28  1  0
 24 30  1  0
 32 35  1  0
 32 36  1  0
 31 33  1  0
 31  3  1  0
 11 13  2  0
 12  4  1  0
 12 13  1  0
 12 14  1  0
  1  7  2  0
  1 10  1  0
 21  9  1  0
 21 25  1  0
 21 22  1  0
  2  9  1  0
  2 10  2  0
 18 17  1  0
 18 19  1  0
 18 20  1  0
 33 34  1  0
 33 35  1  0
 34 36  1  0
  3  4  1  0
  3  5  2  0
  4  8  2  0
  5  7  1  0
  6  7  1  0
  6  8  1  0
  6  9  2  0
 13 15  1  0
 25 26  2  0
 25 27  1  0
 15 16  2  0
 17 16  1  0
 26 28  1  0
 27 29  2  0
 28 30  2  0
 29 30  1  0
M  END
> <PUBCHEM_COMPOUND_CID>
10184653

> <PUBCHEM_CONFORMER_RMSD>
1

> <PUBCHEM_CONFORMER_DIVERSEORDER>
1
55
19
37
62
57
35
28
53
34
56
41
17
51
59
61
43
13
31
50
33
32
60
25
54
27
8
16
20
12
38
65
9
48
40
7
21
44
18
47
10
29
58
4
45
6
15
11
22
63
30
39
52
23
36
26
46
49
64
14
24
42
3
5
2

> <PUBCHEM_MMFF94_PARTIAL_CHARGES>
42
1 -0.18
10 -0.81
11 0.28
13 0.28
14 0.28
15 0.08
16 0.12
17 -0.15
19 0.31
2 -0.19
20 -0.15
21 0.41
22 0.62
23 0.47
24 0.1
25 -0.14
26 0.41
27 -0.29
28 -0.15
29 -0.15
3 -0.56
30 0.18
31 -0.15
32 0.27
33 0.27
34 0.19
4 -0.36
42 0.15
43 0.15
44 0.37
45 0.4
46 0.15
47 0.15
5 -0.57
50 0.15
51 0.15
52 0.15
53 0.15
6 -0.55
7 -0.62
8 -0.6
9 -0.62

> <PUBCHEM_EFFECTIVE_ROTOR_COUNT>
10

> <PUBCHEM_PHARMACOPHORE_FEATURES>
12
1 10 cation
1 3 acceptor
1 4 acceptor
1 5 acceptor
1 6 donor
1 8 donor
3 7 9 23 cation
3 8 9 21 cation
5 3 11 12 13 14 rings
6 15 16 17 18 19 20 rings
6 24 28 29 30 31 34 rings
6 7 9 18 19 21 23 rings

> <PUBCHEM_HEAVY_ATOM_COUNT>
34

> <PUBCHEM_ATOM_DEF_STEREO_COUNT>
1

> <PUBCHEM_ATOM_UDEF_STEREO_COUNT>
0

> <PUBCHEM_BOND_DEF_STEREO_COUNT>
1

> <PUBCHEM_BOND_UDEF_STEREO_COUNT>
0

> <PUBCHEM_ISOTOPIC_ATOM_COUNT>
0

> <PUBCHEM_COMPONENT_COUNT>
1

> <PUBCHEM_CACTVS_TAUTO_COUNT>
6

> <PUBCHEM_CONFORMER_ID>
009B67CD00000001

> <PUBCHEM_MMFF94_ENERGY>
118.3863

> <PUBCHEM_FEATURE_SELFOVERLAP>
61.069

> <PUBCHEM_SHAPE_FINGERPRINT>
10050765 1 18409731725397260590
102385 1 18338237050937012855
10581848 127 18267048157042201945
10675989 125 17765712421274760985
10816530 23 18120663422938000737
10939801 23 17974850889678323372
12107183 9 18190160323388426594
12741549 16 17460587263948438879
12788726 201 18115875276836333234
12925494 130 18339077065050983644
13140716 1 17687186800226601262
13383665 225 18190204393246121460
13540713 4 18271814480219722286
14028597 1 17603577578055265275
14068700 686 18341337759526122742
14190465 44 18336823074577052925
14294032 229 18338254728900680980
14394314 77 17618513515589478757
14395042 24 18187930642324558101
14790565 3 18049448033442953445
15400415 2 17976265634705014989
15439362 3 18123748656634030244
19309040 13 18059285444874715076
19427546 62 18049165458685693621
20238998 120 18194403527617411343
23845131 108 18193558857484026109
24771293 8 18127703836151030955
27425 322 17908984301971085317
469060 322 18266194995910524210
550186 72 18265899249300781597
57527585 21 18269534161279665167
6004065 56 17976261562775526063
653340 110 18410019840245178567
9555976 147 18191279677237576986
9777508 108 18337114441401685095
9849439 229 18338796689486291428
9896288 288 18408602587053135962
9961470 85 18268707200098131368

> <PUBCHEM_SHAPE_MULTIPOLES>
651.79
16.98
9.14
1.35
16.63
7.82
0.79
16.53
7.63
-22.03
1.12
1.11
0.38
1.78

> <PUBCHEM_SHAPE_SELFOVERLAP>
1393.544

> <PUBCHEM_SHAPE_VOLUME>
363.9

> <PUBCHEM_COORDINATE_TYPE>
2
5
10

> <minimizedAffinity>
-5.63167

> <CNNscore>
0.2687120140

> <CNNaffinity>
5.2523360252

> <CNN_VS>
1.4113657475

> <CNNaffinity_variance>
0.8254356980

$$$$
10184653


 36 39  0  0  0  0  0  0  0  0999 V2000
    6.7671   -7.4274   -3.8027 N   0  0  0  0  0  0  0  0  0  0  0  0
    5.9735   -5.3090   -4.6328 N   0  0  0  0  0  0  0  0  0  0  0  0
    3.9701   -9.3364   -2.4074 C   0  0  0  0  0  0  0  0  0  0  0  0
    2.9079   -8.4633   -2.6141 C   0  0  0  0  0  0  0  0  0  0  0  0
    5.2601   -8.9785   -2.8102 C   0  0  0  0  0  0  0  0  0  0  0  0
    4.4385   -6.8811   -3.6254 C   0  0  0  0  0  0  0  0  0  0  0  0
    5.5196   -7.7545   -3.4222 C   0  0  0  0  0  0  0  0  0  0  0  0
    3.1384   -7.2338   -3.2232 C   0  0  0  0  0  0  0  0  0  0  0  0
    4.7369   -5.6680   -4.2394 C   0  0  0  0  0  0  0  0  0  0  0  0
    6.9262   -6.2228   -4.3877 C   0  0  0  0  0  0  0  0  0  0  0  0
    1.1787  -10.7831   -3.4156 O   0  0  0  0  0  0  0  0  0  0  0  0
    1.6131   -8.8052   -2.2177 N   0  0  0  0  0  0  0  0  0  0  0  0
    0.8490   -9.9062   -2.6259 C   0  0  0  0  0  0  0  0  0  0  0  0
    1.1913   -8.1625   -1.5502 H   0  0  0  0  0  0  0  0  0  0  0  0
   -0.4928   -9.9175   -1.9704 C   0  0  0  0  0  0  0  0  0  0  0  0
   -1.4975  -10.6378   -2.4891 C   0  0  0  0  0  0  0  0  0  0  0  0
   -2.8650  -10.7005   -1.8769 C   0  0  0  0  0  0  0  0  0  0  0  0
   -3.8516  -11.2152   -2.8209 N   0  0  0  0  0  0  0  0  0  0  0  0
   -3.3701  -11.0753   -4.1958 C   0  0  0  0  0  0  0  0  0  0  0  0
   -4.1595  -12.6163   -2.5300 C   0  0  0  0  0  0  0  0  0  0  0  0
    3.6974   -4.7349   -4.4772 N   0  0  0  0  0  0  0  0  0  0  0  0
    3.2250   -4.4466   -3.6246 H   0  0  0  0  0  0  0  0  0  0  0  0
    0.1075   -5.8352   -7.9618 Cl  0  0  0  0  0  0  0  0  0  0  0  0
    0.9992   -3.2342   -9.0705 F   0  0  0  0  0  0  0  0  0  0  0  0
    3.0106   -4.3581   -5.6423 C   0  0  0  0  0  0  0  0  0  0  0  0
    2.0162   -5.1853   -6.1646 C   0  0  0  0  0  0  0  0  0  0  0  0
    3.3230   -3.1563   -6.2775 C   0  0  0  0  0  0  0  0  0  0  0  0
    1.3339   -4.8105   -7.3221 C   0  0  0  0  0  0  0  0  0  0  0  0
    2.6408   -2.7816   -7.4352 C   0  0  0  0  0  0  0  0  0  0  0  0
    1.6463   -3.6086   -7.9574 C   0  0  0  0  0  0  0  0  0  0  0  0
    3.7763  -10.5477   -1.8128 O   0  0  0  0  0  0  0  0  0  0  0  0
    3.4448  -12.8406    0.1463 O   0  0  0  0  0  0  0  0  0  0  0  0
    4.2095  -10.6818   -0.4635 C   0  0  0  0  0  0  0  0  0  0  0  0
    3.0362  -10.5297    0.4732 C   0  0  0  0  0  0  0  0  0  0  0  0
    4.6317  -12.1162   -0.2210 C   0  0  0  0  0  0  0  0  0  0  0  0
    2.3929  -11.9002    0.4016 C   0  0  0  0  0  0  0  0  0  0  0  0
 23 28  1  0
 24 30  1  0
 32 35  1  0
 32 36  1  0
 31 33  1  0
 31  3  1  0
 11 13  2  0
 12  4  1  0
 12 13  1  0
 12 14  1  0
  1  7  2  0
  1 10  1  0
 21  9  1  0
 21 25  1  0
 21 22  1  0
  2  9  1  0
  2 10  2  0
 18 17  1  0
 18 19  1  0
 18 20  1  0
 33 34  1  0
 33 35  1  0
 34 36  1  0
  3  4  1  0
  3  5  2  0
  4  8  2  0
  5  7  1  0
  6  7  1  0
  6  8  1  0
  6  9  2  0
 13 15  1  0
 25 26  2  0
 25 27  1  0
 15 16  2  0
 17 16  1  0
 26 28  1  0
 27 29  2  0
 28 30  2  0
 29 30  1  0
M  END
> <PUBCHEM_COMPOUND_CID>
10184653

> <PUBCHEM_CONFORMER_RMSD>
1

> <PUBCHEM_CONFORMER_DIVERSEORDER>
1
55
19
37
62
57
35
28
53
34
56
41
17
51
59
61
43
13
31
50
33
32
60
25
54
27
8
16
20
12
38
65
9
48
40
7
21
44
18
47
10
29
58
4
45
6
15
11
22
63
30
39
52
23
36
26
46
49
64
14
24
42
3
5
2

> <PUBCHEM_MMFF94_PARTIAL_CHARGES>
42
1 -0.18
10 -0.81
11 0.28
13 0.28
14 0.28
15 0.08
16 0.12
17 -0.15
19 0.31
2 -0.19
20 -0.15
21 0.41
22 0.62
23 0.47
24 0.1
25 -0.14
26 0.41
27 -0.29
28 -0.15
29 -0.15
3 -0.56
30 0.18
31 -0.15
32 0.27
33 0.27
34 0.19
4 -0.36
42 0.15
43 0.15
44 0.37
45 0.4
46 0.15
47 0.15
5 -0.57
50 0.15
51 0.15
52 0.15
53 0.15
6 -0.55
7 -0.62
8 -0.6
9 -0.62

> <PUBCHEM_EFFECTIVE_ROTOR_COUNT>
10

> <PUBCHEM_PHARMACOPHORE_FEATURES>
12
1 10 cation
1 3 acceptor
1 4 acceptor
1 5 acceptor
1 6 donor
1 8 donor
3 7 9 23 cation
3 8 9 21 cation
5 3 11 12 13 14 rings
6 15 16 17 18 19 20 rings
6 24 28 29 30 31 34 rings
6 7 9 18 19 21 23 rings

> <PUBCHEM_HEAVY_ATOM_COUNT>
34

> <PUBCHEM_ATOM_DEF_STEREO_COUNT>
1

> <PUBCHEM_ATOM_UDEF_STEREO_COUNT>
0

> <PUBCHEM_BOND_DEF_STEREO_COUNT>
1

> <PUBCHEM_BOND_UDEF_STEREO_COUNT>
0

> <PUBCHEM_ISOTOPIC_ATOM_COUNT>
0

> <PUBCHEM_COMPONENT_COUNT>
1

> <PUBCHEM_CACTVS_TAUTO_COUNT>
6

> <PUBCHEM_CONFORMER_ID>
009B67CD00000001

> <PUBCHEM_MMFF94_ENERGY>
118.3863

> <PUBCHEM_FEATURE_SELFOVERLAP>
61.069

> <PUBCHEM_SHAPE_FINGERPRINT>
10050765 1 18409731725397260590
102385 1 18338237050937012855
10581848 127 18267048157042201945
10675989 125 17765712421274760985
10816530 23 18120663422938000737
10939801 23 17974850889678323372
12107183 9 18190160323388426594
12741549 16 17460587263948438879
12788726 201 18115875276836333234
12925494 130 18339077065050983644
13140716 1 17687186800226601262
13383665 225 18190204393246121460
13540713 4 18271814480219722286
14028597 1 17603577578055265275
14068700 686 18341337759526122742
14190465 44 18336823074577052925
14294032 229 18338254728900680980
14394314 77 17618513515589478757
14395042 24 18187930642324558101
14790565 3 18049448033442953445
15400415 2 17976265634705014989
15439362 3 18123748656634030244
19309040 13 18059285444874715076
19427546 62 18049165458685693621
20238998 120 18194403527617411343
23845131 108 18193558857484026109
24771293 8 18127703836151030955
27425 322 17908984301971085317
469060 322 18266194995910524210
550186 72 18265899249300781597
57527585 21 18269534161279665167
6004065 56 17976261562775526063
653340 110 18410019840245178567
9555976 147 18191279677237576986
9777508 108 18337114441401685095
9849439 229 18338796689486291428
9896288 288 18408602587053135962
9961470 85 18268707200098131368

> <PUBCHEM_SHAPE_MULTIPOLES>
651.79
16.98
9.14
1.35
16.63
7.82
0.79
16.53
7.63
-22.03
1.12
1.11
0.38
1.78

> <PUBCHEM_SHAPE_SELFOVERLAP>
1393.544

> <PUBCHEM_SHAPE_VOLUME>
363.9

> <PUBCHEM_COORDINATE_TYPE>
2
5
10

> <minimizedAffinity>
-8.11512

> <CNNscore>
0.1799230576

> <CNNaffinity>
6.4397807121

> <CNN_VS>
1.1586650610

> <CNNaffinity_variance>
0.4654496014

$$$$
10184653


 36 39  0  0  0  0  0  0  0  0999 V2000
   -5.7013  -12.0517   -7.5698 N   0  0  0  0  0  0  0  0  0  0  0  0
   -5.8914  -10.9068   -5.4581 N   0  0  0  0  0  0  0  0  0  0  0  0
   -4.2783  -15.3857   -7.0464 C   0  0  0  0  0  0  0  0  0  0  0  0
   -4.0947  -15.3957   -5.6682 C   0  0  0  0  0  0  0  0  0  0  0  0
   -4.8180  -14.2588   -7.6735 C   0  0  0  0  0  0  0  0  0  0  0  0
   -4.9935  -13.1487   -5.5579 C   0  0  0  0  0  0  0  0  0  0  0  0
   -5.1838  -13.1266   -6.9493 C   0  0  0  0  0  0  0  0  0  0  0  0
   -4.4514  -14.2782   -4.9200 C   0  0  0  0  0  0  0  0  0  0  0  0
   -5.3706  -11.9996   -4.8687 C   0  0  0  0  0  0  0  0  0  0  0  0
   -6.0274  -11.0005   -6.7906 C   0  0  0  0  0  0  0  0  0  0  0  0
   -4.9456  -16.7850   -3.1464 O   0  0  0  0  0  0  0  0  0  0  0  0
   -3.5568  -16.5132   -5.0260 N   0  0  0  0  0  0  0  0  0  0  0  0
   -3.9967  -17.1231   -3.8440 C   0  0  0  0  0  0  0  0  0  0  0  0
   -2.7465  -16.9187   -5.4902 H   0  0  0  0  0  0  0  0  0  0  0  0
   -3.1504  -18.2999   -3.4846 C   0  0  0  0  0  0  0  0  0  0  0  0
   -3.3482  -18.9534   -2.3309 C   0  0  0  0  0  0  0  0  0  0  0  0
   -2.5413  -20.1465   -1.9137 C   0  0  0  0  0  0  0  0  0  0  0  0
   -3.3751  -21.3365   -1.7780 N   0  0  0  0  0  0  0  0  0  0  0  0
   -4.7273  -20.9714   -1.3538 C   0  0  0  0  0  0  0  0  0  0  0  0
   -3.4206  -22.0789   -3.0386 C   0  0  0  0  0  0  0  0  0  0  0  0
   -5.2078  -11.9476   -3.4621 N   0  0  0  0  0  0  0  0  0  0  0  0
   -6.0690  -11.7153   -2.9748 H   0  0  0  0  0  0  0  0  0  0  0  0
   -0.7648   -9.6285   -2.4025 Cl  0  0  0  0  0  0  0  0  0  0  0  0
   -0.7331  -11.6349   -0.2202 F   0  0  0  0  0  0  0  0  0  0  0  0
   -4.0710  -11.8649   -2.6423 C   0  0  0  0  0  0  0  0  0  0  0  0
   -3.0950  -10.9016   -2.8976 C   0  0  0  0  0  0  0  0  0  0  0  0
   -3.9178  -12.7465   -1.5724 C   0  0  0  0  0  0  0  0  0  0  0  0
   -1.9658  -10.8196   -2.0828 C   0  0  0  0  0  0  0  0  0  0  0  0
   -2.7885  -12.6647   -0.7576 C   0  0  0  0  0  0  0  0  0  0  0  0
   -1.8125  -11.7013   -1.0128 C   0  0  0  0  0  0  0  0  0  0  0  0
   -3.9382  -16.4649   -7.8067 O   0  0  0  0  0  0  0  0  0  0  0  0
   -2.8708  -16.4379  -10.6466 O   0  0  0  0  0  0  0  0  0  0  0  0
   -2.6015  -16.5170   -8.2932 C   0  0  0  0  0  0  0  0  0  0  0  0
   -2.3100  -17.8861   -8.8571 C   0  0  0  0  0  0  0  0  0  0  0  0
   -2.4875  -15.6331   -9.5181 C   0  0  0  0  0  0  0  0  0  0  0  0
   -2.9496  -17.8074  -10.2290 C   0  0  0  0  0  0  0  0  0  0  0  0
 23 28  1  0
 24 30  1  0
 32 35  1  0
 32 36  1  0
 31 33  1  0
 31  3  1  0
 11 13  2  0
 12  4  1  0
 12 13  1  0
 12 14  1  0
  1  7  2  0
  1 10  1  0
 21  9  1  0
 21 25  1  0
 21 22  1  0
  2  9  1  0
  2 10  2  0
 18 17  1  0
 18 19  1  0
 18 20  1  0
 33 34  1  0
 33 35  1  0
 34 36  1  0
  3  4  1  0
  3  5  2  0
  4  8  2  0
  5  7  1  0
  6  7  1  0
  6  8  1  0
  6  9  2  0
 13 15  1  0
 25 26  2  0
 25 27  1  0
 15 16  2  0
 17 16  1  0
 26 28  1  0
 27 29  2  0
 28 30  2  0
 29 30  1  0
M  END
> <PUBCHEM_COMPOUND_CID>
10184653

> <PUBCHEM_CONFORMER_RMSD>
1

> <PUBCHEM_CONFORMER_DIVERSEORDER>
1
55
19
37
62
57
35
28
53
34
56
41
17
51
59
61
43
13
31
50
33
32
60
25
54
27
8
16
20
12
38
65
9
48
40
7
21
44
18
47
10
29
58
4
45
6
15
11
22
63
30
39
52
23
36
26
46
49
64
14
24
42
3
5
2

> <PUBCHEM_MMFF94_PARTIAL_CHARGES>
42
1 -0.18
10 -0.81
11 0.28
13 0.28
14 0.28
15 0.08
16 0.12
17 -0.15
19 0.31
2 -0.19
20 -0.15
21 0.41
22 0.62
23 0.47
24 0.1
25 -0.14
26 0.41
27 -0.29
28 -0.15
29 -0.15
3 -0.56
30 0.18
31 -0.15
32 0.27
33 0.27
34 0.19
4 -0.36
42 0.15
43 0.15
44 0.37
45 0.4
46 0.15
47 0.15
5 -0.57
50 0.15
51 0.15
52 0.15
53 0.15
6 -0.55
7 -0.62
8 -0.6
9 -0.62

> <PUBCHEM_EFFECTIVE_ROTOR_COUNT>
10

> <PUBCHEM_PHARMACOPHORE_FEATURES>
12
1 10 cation
1 3 acceptor
1 4 acceptor
1 5 acceptor
1 6 donor
1 8 donor
3 7 9 23 cation
3 8 9 21 cation
5 3 11 12 13 14 rings
6 15 16 17 18 19 20 rings
6 24 28 29 30 31 34 rings
6 7 9 18 19 21 23 rings

> <PUBCHEM_HEAVY_ATOM_COUNT>
34

> <PUBCHEM_ATOM_DEF_STEREO_COUNT>
1

> <PUBCHEM_ATOM_UDEF_STEREO_COUNT>
0

> <PUBCHEM_BOND_DEF_STEREO_COUNT>
1

> <PUBCHEM_BOND_UDEF_STEREO_COUNT>
0

> <PUBCHEM_ISOTOPIC_ATOM_COUNT>
0

> <PUBCHEM_COMPONENT_COUNT>
1

> <PUBCHEM_CACTVS_TAUTO_COUNT>
6

> <PUBCHEM_CONFORMER_ID>
009B67CD00000001

> <PUBCHEM_MMFF94_ENERGY>
118.3863

> <PUBCHEM_FEATURE_SELFOVERLAP>
61.069

> <PUBCHEM_SHAPE_FINGERPRINT>
10050765 1 18409731725397260590
102385 1 18338237050937012855
10581848 127 18267048157042201945
10675989 125 17765712421274760985
10816530 23 18120663422938000737
10939801 23 17974850889678323372
12107183 9 18190160323388426594
12741549 16 17460587263948438879
12788726 201 18115875276836333234
12925494 130 18339077065050983644
13140716 1 17687186800226601262
13383665 225 18190204393246121460
13540713 4 18271814480219722286
14028597 1 17603577578055265275
14068700 686 18341337759526122742
14190465 44 18336823074577052925
14294032 229 18338254728900680980
14394314 77 17618513515589478757
14395042 24 18187930642324558101
14790565 3 18049448033442953445
15400415 2 17976265634705014989
15439362 3 18123748656634030244
19309040 13 18059285444874715076
19427546 62 18049165458685693621
20238998 120 18194403527617411343
23845131 108 18193558857484026109
24771293 8 18127703836151030955
27425 322 17908984301971085317
469060 322 18266194995910524210
550186 72 18265899249300781597
57527585 21 18269534161279665167
6004065 56 17976261562775526063
653340 110 18410019840245178567
9555976 147 18191279677237576986
9777508 108 18337114441401685095
9849439 229 18338796689486291428
9896288 288 18408602587053135962
9961470 85 18268707200098131368

> <PUBCHEM_SHAPE_MULTIPOLES>
651.79
16.98
9.14
1.35
16.63
7.82
0.79
16.53
7.63
-22.03
1.12
1.11
0.38
1.78

> <PUBCHEM_SHAPE_SELFOVERLAP>
1393.544

> <PUBCHEM_SHAPE_VOLUME>
363.9

> <PUBCHEM_COORDINATE_TYPE>
2
5
10

> <minimizedAffinity>
-7.48966

> <CNNscore>
0.1434044242

> <CNNaffinity>
4.9089169502

> <CNN_VS>
0.7039604187

> <CNNaffinity_variance>
1.6208992004

$$$$
10184653


 36 39  0  0  0  0  0  0  0  0999 V2000
    5.7361   -6.5934   -4.3274 N   0  0  0  0  0  0  0  0  0  0  0  0
    3.8001   -5.1931   -4.6392 N   0  0  0  0  0  0  0  0  0  0  0  0
    8.6514   -5.0464   -5.9155 C   0  0  0  0  0  0  0  0  0  0  0  0
    8.0985   -3.8813   -6.4352 C   0  0  0  0  0  0  0  0  0  0  0  0
    7.8496   -5.9488   -5.2102 C   0  0  0  0  0  0  0  0  0  0  0  0
    5.9448   -4.5336   -5.5381 C   0  0  0  0  0  0  0  0  0  0  0  0
    6.4917   -5.7139   -5.0082 C   0  0  0  0  0  0  0  0  0  0  0  0
    6.7445   -3.6213   -6.2484 C   0  0  0  0  0  0  0  0  0  0  0  0
    4.5852   -4.3338   -5.3161 C   0  0  0  0  0  0  0  0  0  0  0  0
    4.4317   -6.2851   -4.1794 C   0  0  0  0  0  0  0  0  0  0  0  0
    7.3273   -1.3806   -7.9067 O   0  0  0  0  0  0  0  0  0  0  0  0
    8.8852   -2.9694   -7.1423 N   0  0  0  0  0  0  0  0  0  0  0  0
    8.4703   -1.8120   -7.8139 C   0  0  0  0  0  0  0  0  0  0  0  0
    9.8786   -3.1916   -7.1595 H   0  0  0  0  0  0  0  0  0  0  0  0
    9.6207   -1.1032   -8.4498 C   0  0  0  0  0  0  0  0  0  0  0  0
    9.7173   -1.0236   -9.7846 C   0  0  0  0  0  0  0  0  0  0  0  0
   10.8400   -0.3197  -10.4866 C   0  0  0  0  0  0  0  0  0  0  0  0
   11.7571    0.3046   -9.5386 N   0  0  0  0  0  0  0  0  0  0  0  0
   13.0866   -0.2996   -9.6349 C   0  0  0  0  0  0  0  0  0  0  0  0
   11.8359    1.7472   -9.7734 C   0  0  0  0  0  0  0  0  0  0  0  0
    3.9625   -3.1656   -5.8212 N   0  0  0  0  0  0  0  0  0  0  0  0
    3.8875   -2.4279   -5.1260 H   0  0  0  0  0  0  0  0  0  0  0  0
   -0.6788   -3.0450   -7.9856 Cl  0  0  0  0  0  0  0  0  0  0  0  0
    0.9159   -2.2135  -10.3425 F   0  0  0  0  0  0  0  0  0  0  0  0
    3.1860   -2.9253   -6.9659 C   0  0  0  0  0  0  0  0  0  0  0  0
    1.8011   -3.0853   -6.9160 C   0  0  0  0  0  0  0  0  0  0  0  0
    3.7996   -2.5265   -8.1533 C   0  0  0  0  0  0  0  0  0  0  0  0
    1.0299   -2.8462   -8.0534 C   0  0  0  0  0  0  0  0  0  0  0  0
    3.0283   -2.2877   -9.2909 C   0  0  0  0  0  0  0  0  0  0  0  0
    1.6435   -2.4475   -9.2409 C   0  0  0  0  0  0  0  0  0  0  0  0
    9.9745   -5.3295   -6.0824 O   0  0  0  0  0  0  0  0  0  0  0  0
   12.5767   -5.4909   -4.5309 O   0  0  0  0  0  0  0  0  0  0  0  0
   10.5152   -6.3807   -5.2895 C   0  0  0  0  0  0  0  0  0  0  0  0
   11.6368   -7.0639   -6.0330 C   0  0  0  0  0  0  0  0  0  0  0  0
   11.2357   -5.7808   -4.0998 C   0  0  0  0  0  0  0  0  0  0  0  0
   12.7949   -6.1133   -5.8041 C   0  0  0  0  0  0  0  0  0  0  0  0
 23 28  1  0
 24 30  1  0
 32 35  1  0
 32 36  1  0
 31 33  1  0
 31  3  1  0
 11 13  2  0
 12  4  1  0
 12 13  1  0
 12 14  1  0
  1  7  2  0
  1 10  1  0
 21  9  1  0
 21 25  1  0
 21 22  1  0
  2  9  1  0
  2 10  2  0
 18 17  1  0
 18 19  1  0
 18 20  1  0
 33 34  1  0
 33 35  1  0
 34 36  1  0
  3  4  1  0
  3  5  2  0
  4  8  2  0
  5  7  1  0
  6  7  1  0
  6  8  1  0
  6  9  2  0
 13 15  1  0
 25 26  2  0
 25 27  1  0
 15 16  2  0
 17 16  1  0
 26 28  1  0
 27 29  2  0
 28 30  2  0
 29 30  1  0
M  END
> <PUBCHEM_COMPOUND_CID>
10184653

> <PUBCHEM_CONFORMER_RMSD>
1

> <PUBCHEM_CONFORMER_DIVERSEORDER>
1
55
19
37
62
57
35
28
53
34
56
41
17
51
59
61
43
13
31
50
33
32
60
25
54
27
8
16
20
12
38
65
9
48
40
7
21
44
18
47
10
29
58
4
45
6
15
11
22
63
30
39
52
23
36
26
46
49
64
14
24
42
3
5
2

> <PUBCHEM_MMFF94_PARTIAL_CHARGES>
42
1 -0.18
10 -0.81
11 0.28
13 0.28
14 0.28
15 0.08
16 0.12
17 -0.15
19 0.31
2 -0.19
20 -0.15
21 0.41
22 0.62
23 0.47
24 0.1
25 -0.14
26 0.41
27 -0.29
28 -0.15
29 -0.15
3 -0.56
30 0.18
31 -0.15
32 0.27
33 0.27
34 0.19
4 -0.36
42 0.15
43 0.15
44 0.37
45 0.4
46 0.15
47 0.15
5 -0.57
50 0.15
51 0.15
52 0.15
53 0.15
6 -0.55
7 -0.62
8 -0.6
9 -0.62

> <PUBCHEM_EFFECTIVE_ROTOR_COUNT>
10

> <PUBCHEM_PHARMACOPHORE_FEATURES>
12
1 10 cation
1 3 acceptor
1 4 acceptor
1 5 acceptor
1 6 donor
1 8 donor
3 7 9 23 cation
3 8 9 21 cation
5 3 11 12 13 14 rings
6 15 16 17 18 19 20 rings
6 24 28 29 30 31 34 rings
6 7 9 18 19 21 23 rings

> <PUBCHEM_HEAVY_ATOM_COUNT>
34

> <PUBCHEM_ATOM_DEF_STEREO_COUNT>
1

> <PUBCHEM_ATOM_UDEF_STEREO_COUNT>
0

> <PUBCHEM_BOND_DEF_STEREO_COUNT>
1

> <PUBCHEM_BOND_UDEF_STEREO_COUNT>
0

> <PUBCHEM_ISOTOPIC_ATOM_COUNT>
0

> <PUBCHEM_COMPONENT_COUNT>
1

> <PUBCHEM_CACTVS_TAUTO_COUNT>
6

> <PUBCHEM_CONFORMER_ID>
009B67CD00000001

> <PUBCHEM_MMFF94_ENERGY>
118.3863

> <PUBCHEM_FEATURE_SELFOVERLAP>
61.069

> <PUBCHEM_SHAPE_FINGERPRINT>
10050765 1 18409731725397260590
102385 1 18338237050937012855
10581848 127 18267048157042201945
10675989 125 17765712421274760985
10816530 23 18120663422938000737
10939801 23 17974850889678323372
12107183 9 18190160323388426594
12741549 16 17460587263948438879
12788726 201 18115875276836333234
12925494 130 18339077065050983644
13140716 1 17687186800226601262
13383665 225 18190204393246121460
13540713 4 18271814480219722286
14028597 1 17603577578055265275
14068700 686 18341337759526122742
14190465 44 18336823074577052925
14294032 229 18338254728900680980
14394314 77 17618513515589478757
14395042 24 18187930642324558101
14790565 3 18049448033442953445
15400415 2 17976265634705014989
15439362 3 18123748656634030244
19309040 13 18059285444874715076
19427546 62 18049165458685693621
20238998 120 18194403527617411343
23845131 108 18193558857484026109
24771293 8 18127703836151030955
27425 322 17908984301971085317
469060 322 18266194995910524210
550186 72 18265899249300781597
57527585 21 18269534161279665167
6004065 56 17976261562775526063
653340 110 18410019840245178567
9555976 147 18191279677237576986
9777508 108 18337114441401685095
9849439 229 18338796689486291428
9896288 288 18408602587053135962
9961470 85 18268707200098131368

> <PUBCHEM_SHAPE_MULTIPOLES>
651.79
16.98
9.14
1.35
16.63
7.82
0.79
16.53
7.63
-22.03
1.12
1.11
0.38
1.78

> <PUBCHEM_SHAPE_SELFOVERLAP>
1393.544

> <PUBCHEM_SHAPE_VOLUME>
363.9

> <PUBCHEM_COORDINATE_TYPE>
2
5
10

> <minimizedAffinity>
-7.39870

> <CNNscore>
0.1286675781

> <CNNaffinity>
5.8907628059

> <CNN_VS>
0.7579501867

> <CNNaffinity_variance>
0.7703173757

$$$$
