176870


 30 32  0  0  0  0  0  0  0  0999 V2000
   -8.7445    5.1052  -10.7028 N   0  0  0  0  0  0  0  0  0  0  0  0
   -9.1881    5.4438   -8.3586 N   0  0  0  0  0  0  0  0  0  0  0  0
   -9.9785    3.4527   -9.4786 C   0  0  0  0  0  0  0  0  0  0  0  0
   -9.3982    3.9308  -10.6649 C   0  0  0  0  0  0  0  0  0  0  0  0
  -10.7665    1.4607  -10.6096 C   0  0  0  0  0  0  0  0  0  0  0  0
  -10.1962    1.9233  -11.7903 C   0  0  0  0  0  0  0  0  0  0  0  0
  -10.6595    2.2234   -9.4508 C   0  0  0  0  0  0  0  0  0  0  0  0
   -9.8356    4.2633   -8.3557 C   0  0  0  0  0  0  0  0  0  0  0  0
   -9.5204    3.1471  -11.8098 C   0  0  0  0  0  0  0  0  0  0  0  0
   -8.6752    5.7980   -9.5480 C   0  0  0  0  0  0  0  0  0  0  0  0
  -10.3947    3.8467   -7.1220 N   0  0  0  0  0  0  0  0  0  0  0  0
  -10.9701    3.0137   -7.2114 H   0  0  0  0  0  0  0  0  0  0  0  0
  -10.1007    4.1765   -5.7895 C   0  0  0  0  0  0  0  0  0  0  0  0
  -10.4333    5.4369   -5.2929 C   0  0  0  0  0  0  0  0  0  0  0  0
   -9.4760    3.2434   -4.9621 C   0  0  0  0  0  0  0  0  0  0  0  0
  -10.1409    5.7640   -3.9688 C   0  0  0  0  0  0  0  0  0  0  0  0
   -9.1838    3.5705   -3.6380 C   0  0  0  0  0  0  0  0  0  0  0  0
   -9.5160    4.8309   -3.1415 C   0  0  0  0  0  0  0  0  0  0  0  0
  -10.4811    7.0549   -3.4595 C   0  0  0  0  0  0  0  0  0  0  0  0
  -10.7669    8.1399   -3.0314 C   0  0  0  0  0  0  0  0  0  0  0  0
  -11.4261    0.2704  -10.5754 O   0  0  0  0  0  0  0  0  0  0  0  0
  -11.2342   -0.5450   -9.4205 C   0  0  0  0  0  0  0  0  0  0  0  0
   -9.8477   -1.1572   -9.4718 C   0  0  0  0  0  0  0  0  0  0  0  0
   -9.4999   -1.6278   -8.1753 O   0  0  0  0  0  0  0  0  0  0  0  0
   -8.8923   -0.6065   -7.3965 C   0  0  0  0  0  0  0  0  0  0  0  0
  -10.2884    1.1929  -12.9368 O   0  0  0  0  0  0  0  0  0  0  0  0
  -10.1629    1.9012  -14.1682 C   0  0  0  0  0  0  0  0  0  0  0  0
  -10.3976    0.9404  -15.3178 C   0  0  0  0  0  0  0  0  0  0  0  0
   -9.2134    0.1842  -15.5397 O   0  0  0  0  0  0  0  0  0  0  0  0
   -9.5054   -1.1897  -15.7540 C   0  0  0  0  0  0  0  0  0  0  0  0
 21  5  1  0
 21 22  1  0
 26  6  1  0
 26 27  1  0
 24 23  1  0
 24 25  1  0
 29 28  1  0
 29 30  1  0
 11  8  1  0
 11 13  1  0
 11 12  1  0
  1  4  2  0
  1 10  1  0
  2  8  1  0
  2 10  2  0
  3  4  1  0
  3  7  1  0
  3  8  2  0
  4  9  1  0
  5  6  1  0
  5  7  2  0
  6  9  2  0
 22 23  1  0
 13 14  2  0
 13 15  1  0
 27 28  1  0
 14 16  1  0
 15 17  2  0
 16 18  2  0
 16 19  1  0
 17 18  1  0
 19 20  3  0
M  END
> <PUBCHEM_COMPOUND_CID>
176870

> <PUBCHEM_CONFORMER_RMSD>
1

> <PUBCHEM_CONFORMER_DIVERSEORDER>
2
33
38
31
11
15
35
8
30
34
26
17
40
39
24
9
21
3
10
29
13
7
36
4
22
5
14
23
18
1
20
25
28
19
12
37
16
6
27
32

> <PUBCHEM_MMFF94_PARTIAL_CHARGES>
37
1 -0.36
10 0.08
11 0.08
12 -0.15
13 0.41
14 -0.15
15 0.28
16 0.1
17 0.28
18 0.47
19 0.28
2 -0.36
20 0.28
21 -0.15
22 -0.15
23 0.07
24 -0.15
25 -0.15
26 0.28
27 0.28
28 -0.07
29 -0.18
3 -0.56
30 0.15
31 0.15
32 0.4
37 0.15
4 -0.56
42 0.15
43 0.15
44 0.15
45 0.15
5 -0.6
52 0.18
6 -0.62
7 -0.62
9 0.31

> <PUBCHEM_EFFECTIVE_ROTOR_COUNT>
10

> <PUBCHEM_PHARMACOPHORE_FEATURES>
11
1 1 acceptor
1 2 acceptor
1 29 hydrophobe
1 3 acceptor
1 4 acceptor
1 5 donor
3 5 7 13 cation
3 6 7 18 cation
6 16 21 22 23 24 25 rings
6 6 7 8 9 13 18 rings
6 8 9 10 11 12 14 rings

> <PUBCHEM_HEAVY_ATOM_COUNT>
29

> <PUBCHEM_ATOM_DEF_STEREO_COUNT>
0

> <PUBCHEM_ATOM_UDEF_STEREO_COUNT>
0

> <PUBCHEM_BOND_DEF_STEREO_COUNT>
0

> <PUBCHEM_BOND_UDEF_STEREO_COUNT>
0

> <PUBCHEM_ISOTOPIC_ATOM_COUNT>
0

> <PUBCHEM_COMPONENT_COUNT>
1

> <PUBCHEM_CACTVS_TAUTO_COUNT>
3

> <PUBCHEM_CONFORMER_ID>
0002B2E600000002

> <PUBCHEM_MMFF94_ENERGY>
109.0345

> <PUBCHEM_FEATURE_SELFOVERLAP>
56.004

> <PUBCHEM_SHAPE_FINGERPRINT>
10050765 1 18265903634409981085
10319926 262 18341897415355152619
1100329 8 18410580586859225941
11135609 12 18339077193841987016
12035758 1 18341335517911506697
12107183 9 18410301306964043347
13140716 1 18341053003157227613
14866123 147 18335989735686148763
15042514 8 18410300215899931757
15131766 46 15624785411136496104
15537594 2 17894632517921483410
1813 80 17967535628270432548
18603816 31 16588306111714570659
20028762 73 18202569458605911511
21033648 29 17560222700922275914
21267235 1 18340215076997820492
21521239 73 13695593226494534760
21792934 111 18271802363463215817
22122407 14 15697993046696727122
23559900 14 18340486767717355157
23569914 152 12110548262754726986
3004659 81 18114474383490966340
3178227 256 18336283258119562097
335352 9 18411426098732582533
3383291 50 18411139121966439187
3882209 13 17264378412770275454
397830 11 18130503136730142786
50009960 94 17684628202304312418
5104073 3 18340486784702110729
5486654 36 18334299802929227327

> <PUBCHEM_SHAPE_MULTIPOLES>
558.39
18.56
3.67
1.58
0.91
1.25
1.1
7.15
9.51
4.62
0.05
-3.57
0.24
1.11

> <PUBCHEM_SHAPE_SELFOVERLAP>
1186.285

> <PUBCHEM_SHAPE_VOLUME>
308.9

> <PUBCHEM_COORDINATE_TYPE>
2
5
10

> <minimizedAffinity>
-7.76979

> <CNNscore>
0.9231762290

> <CNNaffinity>
6.9911398888

> <CNN_VS>
6.4540543556

> <CNNaffinity_variance>
0.0991375521

$$$$
176870


 30 32  0  0  0  0  0  0  0  0999 V2000
   -8.3931    5.2452  -10.0734 N   0  0  0  0  0  0  0  0  0  0  0  0
   -9.1496    5.9215   -7.8878 N   0  0  0  0  0  0  0  0  0  0  0  0
   -9.8844    3.8260   -8.8429 C   0  0  0  0  0  0  0  0  0  0  0  0
   -9.1125    4.1129   -9.9806 C   0  0  0  0  0  0  0  0  0  0  0  0
  -10.6153    1.7280   -9.8084 C   0  0  0  0  0  0  0  0  0  0  0  0
   -9.8549    2.0007  -10.9400 C   0  0  0  0  0  0  0  0  0  0  0  0
  -10.6325    2.6390   -8.7569 C   0  0  0  0  0  0  0  0  0  0  0  0
   -9.8581    4.7782   -7.8276 C   0  0  0  0  0  0  0  0  0  0  0  0
   -9.1135    3.1835  -11.0179 C   0  0  0  0  0  0  0  0  0  0  0  0
   -8.4509    6.0880   -9.0224 C   0  0  0  0  0  0  0  0  0  0  0  0
  -10.6124    4.5579   -6.6482 N   0  0  0  0  0  0  0  0  0  0  0  0
  -11.6152    4.6022   -6.8079 H   0  0  0  0  0  0  0  0  0  0  0  0
  -10.2741    4.0292   -5.3926 C   0  0  0  0  0  0  0  0  0  0  0  0
  -10.4933    2.6784   -5.1220 C   0  0  0  0  0  0  0  0  0  0  0  0
   -9.7185    4.8550   -4.4154 C   0  0  0  0  0  0  0  0  0  0  0  0
  -10.1570    2.1538   -3.8741 C   0  0  0  0  0  0  0  0  0  0  0  0
   -9.3821    4.3303   -3.1676 C   0  0  0  0  0  0  0  0  0  0  0  0
   -9.6015    2.9796   -2.8969 C   0  0  0  0  0  0  0  0  0  0  0  0
  -10.3815    0.7703   -3.5963 C   0  0  0  0  0  0  0  0  0  0  0  0
  -10.5701   -0.3925   -3.3629 C   0  0  0  0  0  0  0  0  0  0  0  0
  -11.3409    0.5797   -9.7180 O   0  0  0  0  0  0  0  0  0  0  0  0
  -10.8156   -0.4565   -8.8899 C   0  0  0  0  0  0  0  0  0  0  0  0
  -11.9660   -1.2431   -8.2918 C   0  0  0  0  0  0  0  0  0  0  0  0
  -11.6607   -1.5548   -6.9379 O   0  0  0  0  0  0  0  0  0  0  0  0
  -12.5342   -2.5503   -6.4232 C   0  0  0  0  0  0  0  0  0  0  0  0
   -9.8231    1.1227  -11.9814 O   0  0  0  0  0  0  0  0  0  0  0  0
  -10.6982    1.3844  -13.0766 C   0  0  0  0  0  0  0  0  0  0  0  0
   -9.9295    2.1150  -14.1606 C   0  0  0  0  0  0  0  0  0  0  0  0
  -10.2208    1.5182  -15.4186 O   0  0  0  0  0  0  0  0  0  0  0  0
  -10.0971    0.1038  -15.3649 C   0  0  0  0  0  0  0  0  0  0  0  0
 21  5  1  0
 21 22  1  0
 26  6  1  0
 26 27  1  0
 24 23  1  0
 24 25  1  0
 29 28  1  0
 29 30  1  0
 11  8  1  0
 11 13  1  0
 11 12  1  0
  1  4  2  0
  1 10  1  0
  2  8  1  0
  2 10  2  0
  3  4  1  0
  3  7  1  0
  3  8  2  0
  4  9  1  0
  5  6  1  0
  5  7  2  0
  6  9  2  0
 22 23  1  0
 13 14  2  0
 13 15  1  0
 27 28  1  0
 14 16  1  0
 15 17  2  0
 16 18  2  0
 16 19  1  0
 17 18  1  0
 19 20  3  0
M  END
> <PUBCHEM_COMPOUND_CID>
176870

> <PUBCHEM_CONFORMER_RMSD>
1

> <PUBCHEM_CONFORMER_DIVERSEORDER>
2
33
38
31
11
15
35
8
30
34
26
17
40
39
24
9
21
3
10
29
13
7
36
4
22
5
14
23
18
1
20
25
28
19
12
37
16
6
27
32

> <PUBCHEM_MMFF94_PARTIAL_CHARGES>
37
1 -0.36
10 0.08
11 0.08
12 -0.15
13 0.41
14 -0.15
15 0.28
16 0.1
17 0.28
18 0.47
19 0.28
2 -0.36
20 0.28
21 -0.15
22 -0.15
23 0.07
24 -0.15
25 -0.15
26 0.28
27 0.28
28 -0.07
29 -0.18
3 -0.56
30 0.15
31 0.15
32 0.4
37 0.15
4 -0.56
42 0.15
43 0.15
44 0.15
45 0.15
5 -0.6
52 0.18
6 -0.62
7 -0.62
9 0.31

> <PUBCHEM_EFFECTIVE_ROTOR_COUNT>
10

> <PUBCHEM_PHARMACOPHORE_FEATURES>
11
1 1 acceptor
1 2 acceptor
1 29 hydrophobe
1 3 acceptor
1 4 acceptor
1 5 donor
3 5 7 13 cation
3 6 7 18 cation
6 16 21 22 23 24 25 rings
6 6 7 8 9 13 18 rings
6 8 9 10 11 12 14 rings

> <PUBCHEM_HEAVY_ATOM_COUNT>
29

> <PUBCHEM_ATOM_DEF_STEREO_COUNT>
0

> <PUBCHEM_ATOM_UDEF_STEREO_COUNT>
0

> <PUBCHEM_BOND_DEF_STEREO_COUNT>
0

> <PUBCHEM_BOND_UDEF_STEREO_COUNT>
0

> <PUBCHEM_ISOTOPIC_ATOM_COUNT>
0

> <PUBCHEM_COMPONENT_COUNT>
1

> <PUBCHEM_CACTVS_TAUTO_COUNT>
3

> <PUBCHEM_CONFORMER_ID>
0002B2E600000002

> <PUBCHEM_MMFF94_ENERGY>
109.0345

> <PUBCHEM_FEATURE_SELFOVERLAP>
56.004

> <PUBCHEM_SHAPE_FINGERPRINT>
10050765 1 18265903634409981085
10319926 262 18341897415355152619
1100329 8 18410580586859225941
11135609 12 18339077193841987016
12035758 1 18341335517911506697
12107183 9 18410301306964043347
13140716 1 18341053003157227613
14866123 147 18335989735686148763
15042514 8 18410300215899931757
15131766 46 15624785411136496104
15537594 2 17894632517921483410
1813 80 17967535628270432548
18603816 31 16588306111714570659
20028762 73 18202569458605911511
21033648 29 17560222700922275914
21267235 1 18340215076997820492
21521239 73 13695593226494534760
21792934 111 18271802363463215817
22122407 14 15697993046696727122
23559900 14 18340486767717355157
23569914 152 12110548262754726986
3004659 81 18114474383490966340
3178227 256 18336283258119562097
335352 9 18411426098732582533
3383291 50 18411139121966439187
3882209 13 17264378412770275454
397830 11 18130503136730142786
50009960 94 17684628202304312418
5104073 3 18340486784702110729
5486654 36 18334299802929227327

> <PUBCHEM_SHAPE_MULTIPOLES>
558.39
18.56
3.67
1.58
0.91
1.25
1.1
7.15
9.51
4.62
0.05
-3.57
0.24
1.11

> <PUBCHEM_SHAPE_SELFOVERLAP>
1186.285

> <PUBCHEM_SHAPE_VOLUME>
308.9

> <PUBCHEM_COORDINATE_TYPE>
2
5
10

> <minimizedAffinity>
-6.83401

> <CNNscore>
0.8449333310

> <CNNaffinity>
6.8251361847

> <CNN_VS>
5.7667851448

> <CNNaffinity_variance>
0.0728654340

$$$$
176870


 30 32  0  0  0  0  0  0  0  0999 V2000
   -9.2409    4.5578  -11.5447 N   0  0  0  0  0  0  0  0  0  0  0  0
   -9.0496    4.7416   -9.1497 N   0  0  0  0  0  0  0  0  0  0  0  0
   -9.8543    2.6983  -10.1598 C   0  0  0  0  0  0  0  0  0  0  0  0
   -9.6980    3.2995  -11.4195 C   0  0  0  0  0  0  0  0  0  0  0  0
  -10.6598    0.6547  -11.1813 C   0  0  0  0  0  0  0  0  0  0  0  0
  -10.5093    1.2389  -12.4340 C   0  0  0  0  0  0  0  0  0  0  0  0
  -10.3330    1.3819  -10.0410 C   0  0  0  0  0  0  0  0  0  0  0  0
   -9.5098    3.4795   -9.0602 C   0  0  0  0  0  0  0  0  0  0  0  0
  -10.0325    2.5487  -12.5439 C   0  0  0  0  0  0  0  0  0  0  0  0
   -8.9419    5.2106  -10.4033 C   0  0  0  0  0  0  0  0  0  0  0  0
   -9.6408    2.9404   -7.7561 N   0  0  0  0  0  0  0  0  0  0  0  0
   -9.2069    2.0261   -7.6623 H   0  0  0  0  0  0  0  0  0  0  0  0
   -9.9944    3.5147   -6.5250 C   0  0  0  0  0  0  0  0  0  0  0  0
  -10.2964    2.6982   -5.4351 C   0  0  0  0  0  0  0  0  0  0  0  0
  -10.0438    4.9023   -6.3918 C   0  0  0  0  0  0  0  0  0  0  0  0
  -10.6478    3.2695   -4.2121 C   0  0  0  0  0  0  0  0  0  0  0  0
  -10.3951    5.4736   -5.1687 C   0  0  0  0  0  0  0  0  0  0  0  0
  -10.6973    4.6571   -4.0789 C   0  0  0  0  0  0  0  0  0  0  0  0
  -10.9574    2.4337   -3.0953 C   0  0  0  0  0  0  0  0  0  0  0  0
  -11.2177    1.7313   -2.1567 C   0  0  0  0  0  0  0  0  0  0  0  0
  -11.1214   -0.6201  -11.0592 O   0  0  0  0  0  0  0  0  0  0  0  0
  -10.4830   -1.4517  -10.0915 C   0  0  0  0  0  0  0  0  0  0  0  0
  -11.3994   -1.6104   -8.8937 C   0  0  0  0  0  0  0  0  0  0  0  0
  -11.2183   -2.9079   -8.3395 O   0  0  0  0  0  0  0  0  0  0  0  0
  -10.1576   -2.9267   -7.3942 C   0  0  0  0  0  0  0  0  0  0  0  0
  -10.8228    0.5453  -13.5641 O   0  0  0  0  0  0  0  0  0  0  0  0
  -10.4580    1.1365  -14.8095 C   0  0  0  0  0  0  0  0  0  0  0  0
   -9.9424    0.0545  -15.7386 C   0  0  0  0  0  0  0  0  0  0  0  0
  -10.9609   -0.9209  -15.9254 O   0  0  0  0  0  0  0  0  0  0  0  0
  -10.4985   -2.0132  -16.7075 C   0  0  0  0  0  0  0  0  0  0  0  0
 21  5  1  0
 21 22  1  0
 26  6  1  0
 26 27  1  0
 24 23  1  0
 24 25  1  0
 29 28  1  0
 29 30  1  0
 11  8  1  0
 11 13  1  0
 11 12  1  0
  1  4  2  0
  1 10  1  0
  2  8  1  0
  2 10  2  0
  3  4  1  0
  3  7  1  0
  3  8  2  0
  4  9  1  0
  5  6  1  0
  5  7  2  0
  6  9  2  0
 22 23  1  0
 13 14  2  0
 13 15  1  0
 27 28  1  0
 14 16  1  0
 15 17  2  0
 16 18  2  0
 16 19  1  0
 17 18  1  0
 19 20  3  0
M  END
> <PUBCHEM_COMPOUND_CID>
176870

> <PUBCHEM_CONFORMER_RMSD>
1

> <PUBCHEM_CONFORMER_DIVERSEORDER>
2
33
38
31
11
15
35
8
30
34
26
17
40
39
24
9
21
3
10
29
13
7
36
4
22
5
14
23
18
1
20
25
28
19
12
37
16
6
27
32

> <PUBCHEM_MMFF94_PARTIAL_CHARGES>
37
1 -0.36
10 0.08
11 0.08
12 -0.15
13 0.41
14 -0.15
15 0.28
16 0.1
17 0.28
18 0.47
19 0.28
2 -0.36
20 0.28
21 -0.15
22 -0.15
23 0.07
24 -0.15
25 -0.15
26 0.28
27 0.28
28 -0.07
29 -0.18
3 -0.56
30 0.15
31 0.15
32 0.4
37 0.15
4 -0.56
42 0.15
43 0.15
44 0.15
45 0.15
5 -0.6
52 0.18
6 -0.62
7 -0.62
9 0.31

> <PUBCHEM_EFFECTIVE_ROTOR_COUNT>
10

> <PUBCHEM_PHARMACOPHORE_FEATURES>
11
1 1 acceptor
1 2 acceptor
1 29 hydrophobe
1 3 acceptor
1 4 acceptor
1 5 donor
3 5 7 13 cation
3 6 7 18 cation
6 16 21 22 23 24 25 rings
6 6 7 8 9 13 18 rings
6 8 9 10 11 12 14 rings

> <PUBCHEM_HEAVY_ATOM_COUNT>
29

> <PUBCHEM_ATOM_DEF_STEREO_COUNT>
0

> <PUBCHEM_ATOM_UDEF_STEREO_COUNT>
0

> <PUBCHEM_BOND_DEF_STEREO_COUNT>
0

> <PUBCHEM_BOND_UDEF_STEREO_COUNT>
0

> <PUBCHEM_ISOTOPIC_ATOM_COUNT>
0

> <PUBCHEM_COMPONENT_COUNT>
1

> <PUBCHEM_CACTVS_TAUTO_COUNT>
3

> <PUBCHEM_CONFORMER_ID>
0002B2E600000002

> <PUBCHEM_MMFF94_ENERGY>
109.0345

> <PUBCHEM_FEATURE_SELFOVERLAP>
56.004

> <PUBCHEM_SHAPE_FINGERPRINT>
10050765 1 18265903634409981085
10319926 262 18341897415355152619
1100329 8 18410580586859225941
11135609 12 18339077193841987016
12035758 1 18341335517911506697
12107183 9 18410301306964043347
13140716 1 18341053003157227613
14866123 147 18335989735686148763
15042514 8 18410300215899931757
15131766 46 15624785411136496104
15537594 2 17894632517921483410
1813 80 17967535628270432548
18603816 31 16588306111714570659
20028762 73 18202569458605911511
21033648 29 17560222700922275914
21267235 1 18340215076997820492
21521239 73 13695593226494534760
21792934 111 18271802363463215817
22122407 14 15697993046696727122
23559900 14 18340486767717355157
23569914 152 12110548262754726986
3004659 81 18114474383490966340
3178227 256 18336283258119562097
335352 9 18411426098732582533
3383291 50 18411139121966439187
3882209 13 17264378412770275454
397830 11 18130503136730142786
50009960 94 17684628202304312418
5104073 3 18340486784702110729
5486654 36 18334299802929227327

> <PUBCHEM_SHAPE_MULTIPOLES>
558.39
18.56
3.67
1.58
0.91
1.25
1.1
7.15
9.51
4.62
0.05
-3.57
0.24
1.11

> <PUBCHEM_SHAPE_SELFOVERLAP>
1186.285

> <PUBCHEM_SHAPE_VOLUME>
308.9

> <PUBCHEM_COORDINATE_TYPE>
2
5
10

> <minimizedAffinity>
-6.60191

> <CNNscore>
0.7183850408

> <CNNaffinity>
6.6058773994

> <CNN_VS>
4.7455635071

> <CNNaffinity_variance>
0.0056781308

$$$$
176870


 30 32  0  0  0  0  0  0  0  0999 V2000
   -9.0654    5.2591   -9.0961 N   0  0  0  0  0  0  0  0  0  0  0  0
   -9.3223    3.9262  -11.0871 N   0  0  0  0  0  0  0  0  0  0  0  0
  -10.0436    3.0746   -8.9429 C   0  0  0  0  0  0  0  0  0  0  0  0
   -9.6139    4.2774   -8.3588 C   0  0  0  0  0  0  0  0  0  0  0  0
  -10.7632    2.2298   -6.7896 C   0  0  0  0  0  0  0  0  0  0  0  0
  -10.3418    3.4162   -6.1997 C   0  0  0  0  0  0  0  0  0  0  0  0
  -10.6157    2.0552   -8.1621 C   0  0  0  0  0  0  0  0  0  0  0  0
   -9.8674    2.9638  -10.3194 C   0  0  0  0  0  0  0  0  0  0  0  0
   -9.7738    4.4253   -6.9831 C   0  0  0  0  0  0  0  0  0  0  0  0
   -8.9491    5.0301  -10.4198 C   0  0  0  0  0  0  0  0  0  0  0  0
  -10.2772    1.7785  -10.9794 N   0  0  0  0  0  0  0  0  0  0  0  0
  -10.7056    1.1051  -10.3502 H   0  0  0  0  0  0  0  0  0  0  0  0
  -10.4612    1.4647  -12.3353 C   0  0  0  0  0  0  0  0  0  0  0  0
  -10.4467    2.4777  -13.2942 C   0  0  0  0  0  0  0  0  0  0  0  0
  -10.6583    0.1396  -12.7235 C   0  0  0  0  0  0  0  0  0  0  0  0
  -10.6296    2.1652  -14.6413 C   0  0  0  0  0  0  0  0  0  0  0  0
  -10.8410   -0.1728  -14.0705 C   0  0  0  0  0  0  0  0  0  0  0  0
  -10.8269    0.8400  -15.0294 C   0  0  0  0  0  0  0  0  0  0  0  0
  -10.6152    3.2023  -15.6240 C   0  0  0  0  0  0  0  0  0  0  0  0
  -10.6029    4.0739  -16.4500 C   0  0  0  0  0  0  0  0  0  0  0  0
  -11.3194    1.2391   -6.0395 O   0  0  0  0  0  0  0  0  0  0  0  0
  -10.9322    1.1681   -4.6682 C   0  0  0  0  0  0  0  0  0  0  0  0
  -10.4345   -0.2323   -4.3665 C   0  0  0  0  0  0  0  0  0  0  0  0
   -9.3608   -0.5428   -5.2465 O   0  0  0  0  0  0  0  0  0  0  0  0
   -8.2680    0.3477   -5.0686 C   0  0  0  0  0  0  0  0  0  0  0  0
  -10.4769    3.6087   -4.8576 O   0  0  0  0  0  0  0  0  0  0  0  0
   -9.2885    3.8867   -4.1200 C   0  0  0  0  0  0  0  0  0  0  0  0
   -9.6524    4.6654   -2.8706 C   0  0  0  0  0  0  0  0  0  0  0  0
   -8.8721    5.8538   -2.8207 O   0  0  0  0  0  0  0  0  0  0  0  0
   -9.4844    6.9095   -3.5481 C   0  0  0  0  0  0  0  0  0  0  0  0
 21  5  1  0
 21 22  1  0
 26  6  1  0
 26 27  1  0
 24 23  1  0
 24 25  1  0
 29 28  1  0
 29 30  1  0
 11  8  1  0
 11 13  1  0
 11 12  1  0
  1  4  2  0
  1 10  1  0
  2  8  1  0
  2 10  2  0
  3  4  1  0
  3  7  1  0
  3  8  2  0
  4  9  1  0
  5  6  1  0
  5  7  2  0
  6  9  2  0
 22 23  1  0
 13 14  2  0
 13 15  1  0
 27 28  1  0
 14 16  1  0
 15 17  2  0
 16 18  2  0
 16 19  1  0
 17 18  1  0
 19 20  3  0
M  END
> <PUBCHEM_COMPOUND_CID>
176870

> <PUBCHEM_CONFORMER_RMSD>
1

> <PUBCHEM_CONFORMER_DIVERSEORDER>
2
33
38
31
11
15
35
8
30
34
26
17
40
39
24
9
21
3
10
29
13
7
36
4
22
5
14
23
18
1
20
25
28
19
12
37
16
6
27
32

> <PUBCHEM_MMFF94_PARTIAL_CHARGES>
37
1 -0.36
10 0.08
11 0.08
12 -0.15
13 0.41
14 -0.15
15 0.28
16 0.1
17 0.28
18 0.47
19 0.28
2 -0.36
20 0.28
21 -0.15
22 -0.15
23 0.07
24 -0.15
25 -0.15
26 0.28
27 0.28
28 -0.07
29 -0.18
3 -0.56
30 0.15
31 0.15
32 0.4
37 0.15
4 -0.56
42 0.15
43 0.15
44 0.15
45 0.15
5 -0.6
52 0.18
6 -0.62
7 -0.62
9 0.31

> <PUBCHEM_EFFECTIVE_ROTOR_COUNT>
10

> <PUBCHEM_PHARMACOPHORE_FEATURES>
11
1 1 acceptor
1 2 acceptor
1 29 hydrophobe
1 3 acceptor
1 4 acceptor
1 5 donor
3 5 7 13 cation
3 6 7 18 cation
6 16 21 22 23 24 25 rings
6 6 7 8 9 13 18 rings
6 8 9 10 11 12 14 rings

> <PUBCHEM_HEAVY_ATOM_COUNT>
29

> <PUBCHEM_ATOM_DEF_STEREO_COUNT>
0

> <PUBCHEM_ATOM_UDEF_STEREO_COUNT>
0

> <PUBCHEM_BOND_DEF_STEREO_COUNT>
0

> <PUBCHEM_BOND_UDEF_STEREO_COUNT>
0

> <PUBCHEM_ISOTOPIC_ATOM_COUNT>
0

> <PUBCHEM_COMPONENT_COUNT>
1

> <PUBCHEM_CACTVS_TAUTO_COUNT>
3

> <PUBCHEM_CONFORMER_ID>
0002B2E600000002

> <PUBCHEM_MMFF94_ENERGY>
109.0345

> <PUBCHEM_FEATURE_SELFOVERLAP>
56.004

> <PUBCHEM_SHAPE_FINGERPRINT>
10050765 1 18265903634409981085
10319926 262 18341897415355152619
1100329 8 18410580586859225941
11135609 12 18339077193841987016
12035758 1 18341335517911506697
12107183 9 18410301306964043347
13140716 1 18341053003157227613
14866123 147 18335989735686148763
15042514 8 18410300215899931757
15131766 46 15624785411136496104
15537594 2 17894632517921483410
1813 80 17967535628270432548
18603816 31 16588306111714570659
20028762 73 18202569458605911511
21033648 29 17560222700922275914
21267235 1 18340215076997820492
21521239 73 13695593226494534760
21792934 111 18271802363463215817
22122407 14 15697993046696727122
23559900 14 18340486767717355157
23569914 152 12110548262754726986
3004659 81 18114474383490966340
3178227 256 18336283258119562097
335352 9 18411426098732582533
3383291 50 18411139121966439187
3882209 13 17264378412770275454
397830 11 18130503136730142786
50009960 94 17684628202304312418
5104073 3 18340486784702110729
5486654 36 18334299802929227327

> <PUBCHEM_SHAPE_MULTIPOLES>
558.39
18.56
3.67
1.58
0.91
1.25
1.1
7.15
9.51
4.62
0.05
-3.57
0.24
1.11

> <PUBCHEM_SHAPE_SELFOVERLAP>
1186.285

> <PUBCHEM_SHAPE_VOLUME>
308.9

> <PUBCHEM_COORDINATE_TYPE>
2
5
10

> <minimizedAffinity>
-7.43223

> <CNNscore>
0.6715614200

> <CNNaffinity>
6.9690918922

> <CNN_VS>
4.6801733971

> <CNNaffinity_variance>
0.0155639937

$$$$
176870


 30 32  0  0  0  0  0  0  0  0999 V2000
    2.9406  -20.6450   -5.9045 N   0  0  0  0  0  0  0  0  0  0  0  0
    2.9498  -20.1277   -8.2580 N   0  0  0  0  0  0  0  0  0  0  0  0
    0.8906  -20.0440   -6.9946 C   0  0  0  0  0  0  0  0  0  0  0  0
    1.6154  -20.4233   -5.8529 C   0  0  0  0  0  0  0  0  0  0  0  0
   -1.1679  -19.9630   -5.7202 C   0  0  0  0  0  0  0  0  0  0  0  0
   -0.4614  -20.3379   -4.5829 C   0  0  0  0  0  0  0  0  0  0  0  0
   -0.4947  -19.8148   -6.9288 C   0  0  0  0  0  0  0  0  0  0  0  0
    1.6233  -19.9135   -8.1712 C   0  0  0  0  0  0  0  0  0  0  0  0
    0.9163  -20.5640   -4.6565 C   0  0  0  0  0  0  0  0  0  0  0  0
    3.5357  -20.4855   -7.1040 C   0  0  0  0  0  0  0  0  0  0  0  0
    0.9602  -19.5335   -9.3645 N   0  0  0  0  0  0  0  0  0  0  0  0
   -0.0519  -19.5399   -9.2720 H   0  0  0  0  0  0  0  0  0  0  0  0
    1.4056  -18.8982  -10.5344 C   0  0  0  0  0  0  0  0  0  0  0  0
    0.6167  -18.9211  -11.6846 C   0  0  0  0  0  0  0  0  0  0  0  0
    2.6373  -18.2438  -10.5464 C   0  0  0  0  0  0  0  0  0  0  0  0
    1.0599  -18.2897  -12.8468 C   0  0  0  0  0  0  0  0  0  0  0  0
    3.0804  -17.6123  -11.7085 C   0  0  0  0  0  0  0  0  0  0  0  0
    2.2917  -17.6355  -12.8588 C   0  0  0  0  0  0  0  0  0  0  0  0
    0.2524  -18.3130  -14.0254 C   0  0  0  0  0  0  0  0  0  0  0  0
   -0.4261  -18.3326  -15.0160 C   0  0  0  0  0  0  0  0  0  0  0  0
   -2.5093  -19.7380   -5.6632 O   0  0  0  0  0  0  0  0  0  0  0  0
   -3.1680  -19.4269   -6.8899 C   0  0  0  0  0  0  0  0  0  0  0  0
   -4.3327  -18.4985   -6.6045 C   0  0  0  0  0  0  0  0  0  0  0  0
   -4.5999  -17.7192   -7.7642 O   0  0  0  0  0  0  0  0  0  0  0  0
   -5.9960  -17.5875   -7.9925 C   0  0  0  0  0  0  0  0  0  0  0  0
   -1.1001  -20.4886   -3.3888 O   0  0  0  0  0  0  0  0  0  0  0  0
   -0.5573  -19.7892   -2.2709 C   0  0  0  0  0  0  0  0  0  0  0  0
   -0.2277  -20.7857   -1.1763 C   0  0  0  0  0  0  0  0  0  0  0  0
    0.3404  -20.0914   -0.0724 O   0  0  0  0  0  0  0  0  0  0  0  0
    0.5510  -20.9570    1.0345 C   0  0  0  0  0  0  0  0  0  0  0  0
 21  5  1  0
 21 22  1  0
 26  6  1  0
 26 27  1  0
 24 23  1  0
 24 25  1  0
 29 28  1  0
 29 30  1  0
 11  8  1  0
 11 13  1  0
 11 12  1  0
  1  4  2  0
  1 10  1  0
  2  8  1  0
  2 10  2  0
  3  4  1  0
  3  7  1  0
  3  8  2  0
  4  9  1  0
  5  6  1  0
  5  7  2  0
  6  9  2  0
 22 23  1  0
 13 14  2  0
 13 15  1  0
 27 28  1  0
 14 16  1  0
 15 17  2  0
 16 18  2  0
 16 19  1  0
 17 18  1  0
 19 20  3  0
M  END
> <PUBCHEM_COMPOUND_CID>
176870

> <PUBCHEM_CONFORMER_RMSD>
1

> <PUBCHEM_CONFORMER_DIVERSEORDER>
2
33
38
31
11
15
35
8
30
34
26
17
40
39
24
9
21
3
10
29
13
7
36
4
22
5
14
23
18
1
20
25
28
19
12
37
16
6
27
32

> <PUBCHEM_MMFF94_PARTIAL_CHARGES>
37
1 -0.36
10 0.08
11 0.08
12 -0.15
13 0.41
14 -0.15
15 0.28
16 0.1
17 0.28
18 0.47
19 0.28
2 -0.36
20 0.28
21 -0.15
22 -0.15
23 0.07
24 -0.15
25 -0.15
26 0.28
27 0.28
28 -0.07
29 -0.18
3 -0.56
30 0.15
31 0.15
32 0.4
37 0.15
4 -0.56
42 0.15
43 0.15
44 0.15
45 0.15
5 -0.6
52 0.18
6 -0.62
7 -0.62
9 0.31

> <PUBCHEM_EFFECTIVE_ROTOR_COUNT>
10

> <PUBCHEM_PHARMACOPHORE_FEATURES>
11
1 1 acceptor
1 2 acceptor
1 29 hydrophobe
1 3 acceptor
1 4 acceptor
1 5 donor
3 5 7 13 cation
3 6 7 18 cation
6 16 21 22 23 24 25 rings
6 6 7 8 9 13 18 rings
6 8 9 10 11 12 14 rings

> <PUBCHEM_HEAVY_ATOM_COUNT>
29

> <PUBCHEM_ATOM_DEF_STEREO_COUNT>
0

> <PUBCHEM_ATOM_UDEF_STEREO_COUNT>
0

> <PUBCHEM_BOND_DEF_STEREO_COUNT>
0

> <PUBCHEM_BOND_UDEF_STEREO_COUNT>
0

> <PUBCHEM_ISOTOPIC_ATOM_COUNT>
0

> <PUBCHEM_COMPONENT_COUNT>
1

> <PUBCHEM_CACTVS_TAUTO_COUNT>
3

> <PUBCHEM_CONFORMER_ID>
0002B2E600000002

> <PUBCHEM_MMFF94_ENERGY>
109.0345

> <PUBCHEM_FEATURE_SELFOVERLAP>
56.004

> <PUBCHEM_SHAPE_FINGERPRINT>
10050765 1 18265903634409981085
10319926 262 18341897415355152619
1100329 8 18410580586859225941
11135609 12 18339077193841987016
12035758 1 18341335517911506697
12107183 9 18410301306964043347
13140716 1 18341053003157227613
14866123 147 18335989735686148763
15042514 8 18410300215899931757
15131766 46 15624785411136496104
15537594 2 17894632517921483410
1813 80 17967535628270432548
18603816 31 16588306111714570659
20028762 73 18202569458605911511
21033648 29 17560222700922275914
21267235 1 18340215076997820492
21521239 73 13695593226494534760
21792934 111 18271802363463215817
22122407 14 15697993046696727122
23559900 14 18340486767717355157
23569914 152 12110548262754726986
3004659 81 18114474383490966340
3178227 256 18336283258119562097
335352 9 18411426098732582533
3383291 50 18411139121966439187
3882209 13 17264378412770275454
397830 11 18130503136730142786
50009960 94 17684628202304312418
5104073 3 18340486784702110729
5486654 36 18334299802929227327

> <PUBCHEM_SHAPE_MULTIPOLES>
558.39
18.56
3.67
1.58
0.91
1.25
1.1
7.15
9.51
4.62
0.05
-3.57
0.24
1.11

> <PUBCHEM_SHAPE_SELFOVERLAP>
1186.285

> <PUBCHEM_SHAPE_VOLUME>
308.9

> <PUBCHEM_COORDINATE_TYPE>
2
5
10

> <minimizedAffinity>
-5.59674

> <CNNscore>
0.4928035438

> <CNNaffinity>
5.6896567345

> <CNN_VS>
2.8038830757

> <CNNaffinity_variance>
0.3252517283

$$$$
176870


 30 32  0  0  0  0  0  0  0  0999 V2000
  -10.0182   -9.4419   -2.3822 N   0  0  0  0  0  0  0  0  0  0  0  0
  -10.9928   -7.7208   -3.7587 N   0  0  0  0  0  0  0  0  0  0  0  0
  -10.5449   -7.3095   -1.4191 C   0  0  0  0  0  0  0  0  0  0  0  0
  -10.0454   -8.6184   -1.3196 C   0  0  0  0  0  0  0  0  0  0  0  0
  -10.0924   -6.9068    0.9264 C   0  0  0  0  0  0  0  0  0  0  0  0
   -9.5955   -8.2006    1.0375 C   0  0  0  0  0  0  0  0  0  0  0  0
  -10.5684   -6.4574   -0.3014 C   0  0  0  0  0  0  0  0  0  0  0  0
  -11.0054   -6.9224   -2.6746 C   0  0  0  0  0  0  0  0  0  0  0  0
   -9.5754   -9.0420   -0.0788 C   0  0  0  0  0  0  0  0  0  0  0  0
  -10.4935   -8.9487   -3.5437 C   0  0  0  0  0  0  0  0  0  0  0  0
  -11.5238   -5.6155   -2.8523 N   0  0  0  0  0  0  0  0  0  0  0  0
  -12.4467   -5.4987   -2.4430 H   0  0  0  0  0  0  0  0  0  0  0  0
  -10.9249   -4.4015   -3.2240 C   0  0  0  0  0  0  0  0  0  0  0  0
  -10.6232   -4.1533   -4.5631 C   0  0  0  0  0  0  0  0  0  0  0  0
  -10.6317   -3.4432   -2.2538 C   0  0  0  0  0  0  0  0  0  0  0  0
  -10.0281   -2.9468   -4.9317 C   0  0  0  0  0  0  0  0  0  0  0  0
  -10.0367   -2.2367   -2.6225 C   0  0  0  0  0  0  0  0  0  0  0  0
   -9.7348   -1.9886   -3.9615 C   0  0  0  0  0  0  0  0  0  0  0  0
   -9.7186   -2.6921   -6.3032 C   0  0  0  0  0  0  0  0  0  0  0  0
   -9.4586   -2.4779   -7.4559 C   0  0  0  0  0  0  0  0  0  0  0  0
  -10.1167   -6.0759    2.0044 O   0  0  0  0  0  0  0  0  0  0  0  0
   -9.7497   -4.7150    1.7834 C   0  0  0  0  0  0  0  0  0  0  0  0
  -10.4325   -3.8437    2.8201 C   0  0  0  0  0  0  0  0  0  0  0  0
  -10.7012   -4.6247    3.9783 O   0  0  0  0  0  0  0  0  0  0  0  0
   -9.8470   -4.2681    5.0562 C   0  0  0  0  0  0  0  0  0  0  0  0
   -9.1240   -8.6615    2.2300 O   0  0  0  0  0  0  0  0  0  0  0  0
   -9.6418   -9.9066    2.6938 C   0  0  0  0  0  0  0  0  0  0  0  0
   -8.9775  -10.2590    4.0108 C   0  0  0  0  0  0  0  0  0  0  0  0
   -8.8222  -11.6709    4.0890 O   0  0  0  0  0  0  0  0  0  0  0  0
   -9.1707  -12.1624    5.3757 C   0  0  0  0  0  0  0  0  0  0  0  0
 21  5  1  0
 21 22  1  0
 26  6  1  0
 26 27  1  0
 24 23  1  0
 24 25  1  0
 29 28  1  0
 29 30  1  0
 11  8  1  0
 11 13  1  0
 11 12  1  0
  1  4  2  0
  1 10  1  0
  2  8  1  0
  2 10  2  0
  3  4  1  0
  3  7  1  0
  3  8  2  0
  4  9  1  0
  5  6  1  0
  5  7  2  0
  6  9  2  0
 22 23  1  0
 13 14  2  0
 13 15  1  0
 27 28  1  0
 14 16  1  0
 15 17  2  0
 16 18  2  0
 16 19  1  0
 17 18  1  0
 19 20  3  0
M  END
> <PUBCHEM_COMPOUND_CID>
176870

> <PUBCHEM_CONFORMER_RMSD>
1

> <PUBCHEM_CONFORMER_DIVERSEORDER>
2
33
38
31
11
15
35
8
30
34
26
17
40
39
24
9
21
3
10
29
13
7
36
4
22
5
14
23
18
1
20
25
28
19
12
37
16
6
27
32

> <PUBCHEM_MMFF94_PARTIAL_CHARGES>
37
1 -0.36
10 0.08
11 0.08
12 -0.15
13 0.41
14 -0.15
15 0.28
16 0.1
17 0.28
18 0.47
19 0.28
2 -0.36
20 0.28
21 -0.15
22 -0.15
23 0.07
24 -0.15
25 -0.15
26 0.28
27 0.28
28 -0.07
29 -0.18
3 -0.56
30 0.15
31 0.15
32 0.4
37 0.15
4 -0.56
42 0.15
43 0.15
44 0.15
45 0.15
5 -0.6
52 0.18
6 -0.62
7 -0.62
9 0.31

> <PUBCHEM_EFFECTIVE_ROTOR_COUNT>
10

> <PUBCHEM_PHARMACOPHORE_FEATURES>
11
1 1 acceptor
1 2 acceptor
1 29 hydrophobe
1 3 acceptor
1 4 acceptor
1 5 donor
3 5 7 13 cation
3 6 7 18 cation
6 16 21 22 23 24 25 rings
6 6 7 8 9 13 18 rings
6 8 9 10 11 12 14 rings

> <PUBCHEM_HEAVY_ATOM_COUNT>
29

> <PUBCHEM_ATOM_DEF_STEREO_COUNT>
0

> <PUBCHEM_ATOM_UDEF_STEREO_COUNT>
0

> <PUBCHEM_BOND_DEF_STEREO_COUNT>
0

> <PUBCHEM_BOND_UDEF_STEREO_COUNT>
0

> <PUBCHEM_ISOTOPIC_ATOM_COUNT>
0

> <PUBCHEM_COMPONENT_COUNT>
1

> <PUBCHEM_CACTVS_TAUTO_COUNT>
3

> <PUBCHEM_CONFORMER_ID>
0002B2E600000002

> <PUBCHEM_MMFF94_ENERGY>
109.0345

> <PUBCHEM_FEATURE_SELFOVERLAP>
56.004

> <PUBCHEM_SHAPE_FINGERPRINT>
10050765 1 18265903634409981085
10319926 262 18341897415355152619
1100329 8 18410580586859225941
11135609 12 18339077193841987016
12035758 1 18341335517911506697
12107183 9 18410301306964043347
13140716 1 18341053003157227613
14866123 147 18335989735686148763
15042514 8 18410300215899931757
15131766 46 15624785411136496104
15537594 2 17894632517921483410
1813 80 17967535628270432548
18603816 31 16588306111714570659
20028762 73 18202569458605911511
21033648 29 17560222700922275914
21267235 1 18340215076997820492
21521239 73 13695593226494534760
21792934 111 18271802363463215817
22122407 14 15697993046696727122
23559900 14 18340486767717355157
23569914 152 12110548262754726986
3004659 81 18114474383490966340
3178227 256 18336283258119562097
335352 9 18411426098732582533
3383291 50 18411139121966439187
3882209 13 17264378412770275454
397830 11 18130503136730142786
50009960 94 17684628202304312418
5104073 3 18340486784702110729
5486654 36 18334299802929227327

> <PUBCHEM_SHAPE_MULTIPOLES>
558.39
18.56
3.67
1.58
0.91
1.25
1.1
7.15
9.51
4.62
0.05
-3.57
0.24
1.11

> <PUBCHEM_SHAPE_SELFOVERLAP>
1186.285

> <PUBCHEM_SHAPE_VOLUME>
308.9

> <PUBCHEM_COORDINATE_TYPE>
2
5
10

> <minimizedAffinity>
-4.77386

> <CNNscore>
0.3452822566

> <CNNaffinity>
4.9248852730

> <CNN_VS>
1.7004754543

> <CNNaffinity_variance>
0.3037701845

$$$$
176870


 30 32  0  0  0  0  0  0  0  0999 V2000
    5.7974  -15.0899  -22.5989 N   0  0  0  0  0  0  0  0  0  0  0  0
    4.0681  -15.6780  -21.0271 N   0  0  0  0  0  0  0  0  0  0  0  0
    5.9197  -14.2823  -20.3439 C   0  0  0  0  0  0  0  0  0  0  0  0
    6.4309  -14.3804  -21.6484 C   0  0  0  0  0  0  0  0  0  0  0  0
    7.7792  -12.8842  -19.6685 C   0  0  0  0  0  0  0  0  0  0  0  0
    8.2952  -12.9738  -20.9564 C   0  0  0  0  0  0  0  0  0  0  0  0
    6.5906  -13.5377  -19.3582 C   0  0  0  0  0  0  0  0  0  0  0  0
    4.7279  -14.9591  -20.0994 C   0  0  0  0  0  0  0  0  0  0  0  0
    7.6220  -13.7163  -21.9312 C   0  0  0  0  0  0  0  0  0  0  0  0
    4.6509  -15.7003  -22.2367 C   0  0  0  0  0  0  0  0  0  0  0  0
    4.1511  -14.9061  -18.8061 N   0  0  0  0  0  0  0  0  0  0  0  0
    3.4502  -14.1755  -18.7169 H   0  0  0  0  0  0  0  0  0  0  0  0
    4.1482  -15.8106  -17.7325 C   0  0  0  0  0  0  0  0  0  0  0  0
    2.9526  -16.1203  -17.0842 C   0  0  0  0  0  0  0  0  0  0  0  0
    5.3413  -16.3997  -17.3143 C   0  0  0  0  0  0  0  0  0  0  0  0
    2.9504  -17.0191  -16.0175 C   0  0  0  0  0  0  0  0  0  0  0  0
    5.3391  -17.2986  -16.2477 C   0  0  0  0  0  0  0  0  0  0  0  0
    4.1436  -17.6081  -15.5992 C   0  0  0  0  0  0  0  0  0  0  0  0
    1.7261  -17.3367  -15.3528 C   0  0  0  0  0  0  0  0  0  0  0  0
    0.6971  -17.6034  -14.7942 C   0  0  0  0  0  0  0  0  0  0  0  0
    8.4230  -12.1636  -18.7096 O   0  0  0  0  0  0  0  0  0  0  0  0
    9.2075  -12.8926  -17.7670 C   0  0  0  0  0  0  0  0  0  0  0  0
   10.6071  -12.3096  -17.7320 C   0  0  0  0  0  0  0  0  0  0  0  0
   10.8595  -11.7866  -16.4334 O   0  0  0  0  0  0  0  0  0  0  0  0
    9.7449  -11.9718  -15.5720 C   0  0  0  0  0  0  0  0  0  0  0  0
    9.4575  -12.3418  -21.2825 O   0  0  0  0  0  0  0  0  0  0  0  0
    9.4020  -11.3901  -22.3431 C   0  0  0  0  0  0  0  0  0  0  0  0
   10.3184  -10.2276  -22.0132 C   0  0  0  0  0  0  0  0  0  0  0  0
   10.8536  -10.4144  -20.7085 O   0  0  0  0  0  0  0  0  0  0  0  0
   12.2446  -10.1274  -20.6704 C   0  0  0  0  0  0  0  0  0  0  0  0
 21  5  1  0
 21 22  1  0
 26  6  1  0
 26 27  1  0
 24 23  1  0
 24 25  1  0
 29 28  1  0
 29 30  1  0
 11  8  1  0
 11 13  1  0
 11 12  1  0
  1  4  2  0
  1 10  1  0
  2  8  1  0
  2 10  2  0
  3  4  1  0
  3  7  1  0
  3  8  2  0
  4  9  1  0
  5  6  1  0
  5  7  2  0
  6  9  2  0
 22 23  1  0
 13 14  2  0
 13 15  1  0
 27 28  1  0
 14 16  1  0
 15 17  2  0
 16 18  2  0
 16 19  1  0
 17 18  1  0
 19 20  3  0
M  END
> <PUBCHEM_COMPOUND_CID>
176870

> <PUBCHEM_CONFORMER_RMSD>
1

> <PUBCHEM_CONFORMER_DIVERSEORDER>
2
33
38
31
11
15
35
8
30
34
26
17
40
39
24
9
21
3
10
29
13
7
36
4
22
5
14
23
18
1
20
25
28
19
12
37
16
6
27
32

> <PUBCHEM_MMFF94_PARTIAL_CHARGES>
37
1 -0.36
10 0.08
11 0.08
12 -0.15
13 0.41
14 -0.15
15 0.28
16 0.1
17 0.28
18 0.47
19 0.28
2 -0.36
20 0.28
21 -0.15
22 -0.15
23 0.07
24 -0.15
25 -0.15
26 0.28
27 0.28
28 -0.07
29 -0.18
3 -0.56
30 0.15
31 0.15
32 0.4
37 0.15
4 -0.56
42 0.15
43 0.15
44 0.15
45 0.15
5 -0.6
52 0.18
6 -0.62
7 -0.62
9 0.31

> <PUBCHEM_EFFECTIVE_ROTOR_COUNT>
10

> <PUBCHEM_PHARMACOPHORE_FEATURES>
11
1 1 acceptor
1 2 acceptor
1 29 hydrophobe
1 3 acceptor
1 4 acceptor
1 5 donor
3 5 7 13 cation
3 6 7 18 cation
6 16 21 22 23 24 25 rings
6 6 7 8 9 13 18 rings
6 8 9 10 11 12 14 rings

> <PUBCHEM_HEAVY_ATOM_COUNT>
29

> <PUBCHEM_ATOM_DEF_STEREO_COUNT>
0

> <PUBCHEM_ATOM_UDEF_STEREO_COUNT>
0

> <PUBCHEM_BOND_DEF_STEREO_COUNT>
0

> <PUBCHEM_BOND_UDEF_STEREO_COUNT>
0

> <PUBCHEM_ISOTOPIC_ATOM_COUNT>
0

> <PUBCHEM_COMPONENT_COUNT>
1

> <PUBCHEM_CACTVS_TAUTO_COUNT>
3

> <PUBCHEM_CONFORMER_ID>
0002B2E600000002

> <PUBCHEM_MMFF94_ENERGY>
109.0345

> <PUBCHEM_FEATURE_SELFOVERLAP>
56.004

> <PUBCHEM_SHAPE_FINGERPRINT>
10050765 1 18265903634409981085
10319926 262 18341897415355152619
1100329 8 18410580586859225941
11135609 12 18339077193841987016
12035758 1 18341335517911506697
12107183 9 18410301306964043347
13140716 1 18341053003157227613
14866123 147 18335989735686148763
15042514 8 18410300215899931757
15131766 46 15624785411136496104
15537594 2 17894632517921483410
1813 80 17967535628270432548
18603816 31 16588306111714570659
20028762 73 18202569458605911511
21033648 29 17560222700922275914
21267235 1 18340215076997820492
21521239 73 13695593226494534760
21792934 111 18271802363463215817
22122407 14 15697993046696727122
23559900 14 18340486767717355157
23569914 152 12110548262754726986
3004659 81 18114474383490966340
3178227 256 18336283258119562097
335352 9 18411426098732582533
3383291 50 18411139121966439187
3882209 13 17264378412770275454
397830 11 18130503136730142786
50009960 94 17684628202304312418
5104073 3 18340486784702110729
5486654 36 18334299802929227327

> <PUBCHEM_SHAPE_MULTIPOLES>
558.39
18.56
3.67
1.58
0.91
1.25
1.1
7.15
9.51
4.62
0.05
-3.57
0.24
1.11

> <PUBCHEM_SHAPE_SELFOVERLAP>
1186.285

> <PUBCHEM_SHAPE_VOLUME>
308.9

> <PUBCHEM_COORDINATE_TYPE>
2
5
10

> <minimizedAffinity>
-4.91489

> <CNNscore>
0.2716689110

> <CNNaffinity>
5.1967120171

> <CNN_VS>
1.4117851257

> <CNNaffinity_variance>
0.4470412731

$$$$
176870


 30 32  0  0  0  0  0  0  0  0999 V2000
   -9.5490   -4.0394   -6.8853 N   0  0  0  0  0  0  0  0  0  0  0  0
   -9.8394   -6.4219   -6.6705 N   0  0  0  0  0  0  0  0  0  0  0  0
  -10.2339   -4.9658   -4.7817 C   0  0  0  0  0  0  0  0  0  0  0  0
   -9.8976   -3.8729   -5.5973 C   0  0  0  0  0  0  0  0  0  0  0  0
  -10.6267   -3.4985   -2.8946 C   0  0  0  0  0  0  0  0  0  0  0  0
  -10.2959   -2.4086   -3.6920 C   0  0  0  0  0  0  0  0  0  0  0  0
  -10.5968   -4.7797   -3.4365 C   0  0  0  0  0  0  0  0  0  0  0  0
  -10.1840   -6.2196   -5.3847 C   0  0  0  0  0  0  0  0  0  0  0  0
   -9.9360   -2.6019   -5.0291 C   0  0  0  0  0  0  0  0  0  0  0  0
   -9.5385   -5.3046   -7.3518 C   0  0  0  0  0  0  0  0  0  0  0  0
  -10.5105   -7.3701   -4.6244 N   0  0  0  0  0  0  0  0  0  0  0  0
  -11.3882   -7.7953   -4.9102 H   0  0  0  0  0  0  0  0  0  0  0  0
   -9.7546   -8.1836   -3.7656 C   0  0  0  0  0  0  0  0  0  0  0  0
   -8.6892   -8.9299   -4.2693 C   0  0  0  0  0  0  0  0  0  0  0  0
  -10.0691   -8.2454   -2.4080 C   0  0  0  0  0  0  0  0  0  0  0  0
   -7.9386   -9.7380   -3.4154 C   0  0  0  0  0  0  0  0  0  0  0  0
   -9.3184   -9.0534   -1.5542 C   0  0  0  0  0  0  0  0  0  0  0  0
   -8.2533   -9.7999   -2.0579 C   0  0  0  0  0  0  0  0  0  0  0  0
   -6.8473  -10.5029   -3.9309 C   0  0  0  0  0  0  0  0  0  0  0  0
   -5.9301  -11.1456   -4.3641 C   0  0  0  0  0  0  0  0  0  0  0  0
  -10.9805   -3.3253   -1.5916 O   0  0  0  0  0  0  0  0  0  0  0  0
   -9.9249   -3.1173   -0.6546 C   0  0  0  0  0  0  0  0  0  0  0  0
  -10.4528   -3.3569    0.7468 C   0  0  0  0  0  0  0  0  0  0  0  0
  -11.8361   -3.6804    0.6726 O   0  0  0  0  0  0  0  0  0  0  0  0
  -12.5535   -3.1555    1.7809 C   0  0  0  0  0  0  0  0  0  0  0  0
  -10.3186   -1.1451   -3.1824 O   0  0  0  0  0  0  0  0  0  0  0  0
  -10.5776   -0.0821   -4.0970 C   0  0  0  0  0  0  0  0  0  0  0  0
  -10.8913    1.1785   -3.3145 C   0  0  0  0  0  0  0  0  0  0  0  0
   -9.7323    2.0026   -3.2783 O   0  0  0  0  0  0  0  0  0  0  0  0
  -10.0610    3.3500   -2.9698 C   0  0  0  0  0  0  0  0  0  0  0  0
 21  5  1  0
 21 22  1  0
 26  6  1  0
 26 27  1  0
 24 23  1  0
 24 25  1  0
 29 28  1  0
 29 30  1  0
 11  8  1  0
 11 13  1  0
 11 12  1  0
  1  4  2  0
  1 10  1  0
  2  8  1  0
  2 10  2  0
  3  4  1  0
  3  7  1  0
  3  8  2  0
  4  9  1  0
  5  6  1  0
  5  7  2  0
  6  9  2  0
 22 23  1  0
 13 14  2  0
 13 15  1  0
 27 28  1  0
 14 16  1  0
 15 17  2  0
 16 18  2  0
 16 19  1  0
 17 18  1  0
 19 20  3  0
M  END
> <PUBCHEM_COMPOUND_CID>
176870

> <PUBCHEM_CONFORMER_RMSD>
1

> <PUBCHEM_CONFORMER_DIVERSEORDER>
2
33
38
31
11
15
35
8
30
34
26
17
40
39
24
9
21
3
10
29
13
7
36
4
22
5
14
23
18
1
20
25
28
19
12
37
16
6
27
32

> <PUBCHEM_MMFF94_PARTIAL_CHARGES>
37
1 -0.36
10 0.08
11 0.08
12 -0.15
13 0.41
14 -0.15
15 0.28
16 0.1
17 0.28
18 0.47
19 0.28
2 -0.36
20 0.28
21 -0.15
22 -0.15
23 0.07
24 -0.15
25 -0.15
26 0.28
27 0.28
28 -0.07
29 -0.18
3 -0.56
30 0.15
31 0.15
32 0.4
37 0.15
4 -0.56
42 0.15
43 0.15
44 0.15
45 0.15
5 -0.6
52 0.18
6 -0.62
7 -0.62
9 0.31

> <PUBCHEM_EFFECTIVE_ROTOR_COUNT>
10

> <PUBCHEM_PHARMACOPHORE_FEATURES>
11
1 1 acceptor
1 2 acceptor
1 29 hydrophobe
1 3 acceptor
1 4 acceptor
1 5 donor
3 5 7 13 cation
3 6 7 18 cation
6 16 21 22 23 24 25 rings
6 6 7 8 9 13 18 rings
6 8 9 10 11 12 14 rings

> <PUBCHEM_HEAVY_ATOM_COUNT>
29

> <PUBCHEM_ATOM_DEF_STEREO_COUNT>
0

> <PUBCHEM_ATOM_UDEF_STEREO_COUNT>
0

> <PUBCHEM_BOND_DEF_STEREO_COUNT>
0

> <PUBCHEM_BOND_UDEF_STEREO_COUNT>
0

> <PUBCHEM_ISOTOPIC_ATOM_COUNT>
0

> <PUBCHEM_COMPONENT_COUNT>
1

> <PUBCHEM_CACTVS_TAUTO_COUNT>
3

> <PUBCHEM_CONFORMER_ID>
0002B2E600000002

> <PUBCHEM_MMFF94_ENERGY>
109.0345

> <PUBCHEM_FEATURE_SELFOVERLAP>
56.004

> <PUBCHEM_SHAPE_FINGERPRINT>
10050765 1 18265903634409981085
10319926 262 18341897415355152619
1100329 8 18410580586859225941
11135609 12 18339077193841987016
12035758 1 18341335517911506697
12107183 9 18410301306964043347
13140716 1 18341053003157227613
14866123 147 18335989735686148763
15042514 8 18410300215899931757
15131766 46 15624785411136496104
15537594 2 17894632517921483410
1813 80 17967535628270432548
18603816 31 16588306111714570659
20028762 73 18202569458605911511
21033648 29 17560222700922275914
21267235 1 18340215076997820492
21521239 73 13695593226494534760
21792934 111 18271802363463215817
22122407 14 15697993046696727122
23559900 14 18340486767717355157
23569914 152 12110548262754726986
3004659 81 18114474383490966340
3178227 256 18336283258119562097
335352 9 18411426098732582533
3383291 50 18411139121966439187
3882209 13 17264378412770275454
397830 11 18130503136730142786
50009960 94 17684628202304312418
5104073 3 18340486784702110729
5486654 36 18334299802929227327

> <PUBCHEM_SHAPE_MULTIPOLES>
558.39
18.56
3.67
1.58
0.91
1.25
1.1
7.15
9.51
4.62
0.05
-3.57
0.24
1.11

> <PUBCHEM_SHAPE_SELFOVERLAP>
1186.285

> <PUBCHEM_SHAPE_VOLUME>
308.9

> <PUBCHEM_COORDINATE_TYPE>
2
5
10

> <minimizedAffinity>
-5.49247

> <CNNscore>
0.2557211816

> <CNNaffinity>
5.0030641556

> <CNN_VS>
1.2793895006

> <CNNaffinity_variance>
0.9201923013

$$$$
176870


 30 32  0  0  0  0  0  0  0  0999 V2000
   -9.3287   -5.2878   -7.0919 N   0  0  0  0  0  0  0  0  0  0  0  0
   -9.5798   -7.6689   -6.8193 N   0  0  0  0  0  0  0  0  0  0  0  0
  -10.2410   -6.1582   -5.0518 C   0  0  0  0  0  0  0  0  0  0  0  0
   -9.8366   -5.0857   -5.8634 C   0  0  0  0  0  0  0  0  0  0  0  0
  -10.9007   -4.6365   -3.2862 C   0  0  0  0  0  0  0  0  0  0  0  0
  -10.5039   -3.5664   -4.0803 C   0  0  0  0  0  0  0  0  0  0  0  0
  -10.7707   -5.9349   -3.7690 C   0  0  0  0  0  0  0  0  0  0  0  0
  -10.0844   -7.4309   -5.5939 C   0  0  0  0  0  0  0  0  0  0  0  0
   -9.9780   -3.7967   -5.3551 C   0  0  0  0  0  0  0  0  0  0  0  0
   -9.2275   -6.5681   -7.5029 C   0  0  0  0  0  0  0  0  0  0  0  0
  -10.4707   -8.5627   -4.8335 N   0  0  0  0  0  0  0  0  0  0  0  0
  -11.3998   -8.8990   -5.0718 H   0  0  0  0  0  0  0  0  0  0  0  0
   -9.7442   -9.4607   -4.0358 C   0  0  0  0  0  0  0  0  0  0  0  0
   -8.4842   -9.8967   -4.4460 C   0  0  0  0  0  0  0  0  0  0  0  0
  -10.2825   -9.9170   -2.8327 C   0  0  0  0  0  0  0  0  0  0  0  0
   -7.7628  -10.7890   -3.6530 C   0  0  0  0  0  0  0  0  0  0  0  0
   -9.5610  -10.8092   -2.0396 C   0  0  0  0  0  0  0  0  0  0  0  0
   -8.3012  -11.2453   -2.4498 C   0  0  0  0  0  0  0  0  0  0  0  0
   -6.4723  -11.2361   -4.0727 C   0  0  0  0  0  0  0  0  0  0  0  0
   -5.3876  -11.6117   -4.4254 C   0  0  0  0  0  0  0  0  0  0  0  0
  -11.4158   -4.4272   -2.0435 O   0  0  0  0  0  0  0  0  0  0  0  0
  -11.9792   -5.5553   -1.3761 C   0  0  0  0  0  0  0  0  0  0  0  0
  -11.0756   -5.9509   -0.2242 C   0  0  0  0  0  0  0  0  0  0  0  0
  -11.0998   -7.3658   -0.0801 O   0  0  0  0  0  0  0  0  0  0  0  0
   -9.8222   -7.8746    0.2772 C   0  0  0  0  0  0  0  0  0  0  0  0
  -10.6225   -2.2866   -3.6279 O   0  0  0  0  0  0  0  0  0  0  0  0
   -9.9955   -1.2654   -4.4009 C   0  0  0  0  0  0  0  0  0  0  0  0
  -10.6239    0.0714   -4.0574 C   0  0  0  0  0  0  0  0  0  0  0  0
  -11.4871    0.4645   -5.1176 O   0  0  0  0  0  0  0  0  0  0  0  0
  -11.0635   -0.0761   -6.3614 C   0  0  0  0  0  0  0  0  0  0  0  0
 21  5  1  0
 21 22  1  0
 26  6  1  0
 26 27  1  0
 24 23  1  0
 24 25  1  0
 29 28  1  0
 29 30  1  0
 11  8  1  0
 11 13  1  0
 11 12  1  0
  1  4  2  0
  1 10  1  0
  2  8  1  0
  2 10  2  0
  3  4  1  0
  3  7  1  0
  3  8  2  0
  4  9  1  0
  5  6  1  0
  5  7  2  0
  6  9  2  0
 22 23  1  0
 13 14  2  0
 13 15  1  0
 27 28  1  0
 14 16  1  0
 15 17  2  0
 16 18  2  0
 16 19  1  0
 17 18  1  0
 19 20  3  0
M  END
> <PUBCHEM_COMPOUND_CID>
176870

> <PUBCHEM_CONFORMER_RMSD>
1

> <PUBCHEM_CONFORMER_DIVERSEORDER>
2
33
38
31
11
15
35
8
30
34
26
17
40
39
24
9
21
3
10
29
13
7
36
4
22
5
14
23
18
1
20
25
28
19
12
37
16
6
27
32

> <PUBCHEM_MMFF94_PARTIAL_CHARGES>
37
1 -0.36
10 0.08
11 0.08
12 -0.15
13 0.41
14 -0.15
15 0.28
16 0.1
17 0.28
18 0.47
19 0.28
2 -0.36
20 0.28
21 -0.15
22 -0.15
23 0.07
24 -0.15
25 -0.15
26 0.28
27 0.28
28 -0.07
29 -0.18
3 -0.56
30 0.15
31 0.15
32 0.4
37 0.15
4 -0.56
42 0.15
43 0.15
44 0.15
45 0.15
5 -0.6
52 0.18
6 -0.62
7 -0.62
9 0.31

> <PUBCHEM_EFFECTIVE_ROTOR_COUNT>
10

> <PUBCHEM_PHARMACOPHORE_FEATURES>
11
1 1 acceptor
1 2 acceptor
1 29 hydrophobe
1 3 acceptor
1 4 acceptor
1 5 donor
3 5 7 13 cation
3 6 7 18 cation
6 16 21 22 23 24 25 rings
6 6 7 8 9 13 18 rings
6 8 9 10 11 12 14 rings

> <PUBCHEM_HEAVY_ATOM_COUNT>
29

> <PUBCHEM_ATOM_DEF_STEREO_COUNT>
0

> <PUBCHEM_ATOM_UDEF_STEREO_COUNT>
0

> <PUBCHEM_BOND_DEF_STEREO_COUNT>
0

> <PUBCHEM_BOND_UDEF_STEREO_COUNT>
0

> <PUBCHEM_ISOTOPIC_ATOM_COUNT>
0

> <PUBCHEM_COMPONENT_COUNT>
1

> <PUBCHEM_CACTVS_TAUTO_COUNT>
3

> <PUBCHEM_CONFORMER_ID>
0002B2E600000002

> <PUBCHEM_MMFF94_ENERGY>
109.0345

> <PUBCHEM_FEATURE_SELFOVERLAP>
56.004

> <PUBCHEM_SHAPE_FINGERPRINT>
10050765 1 18265903634409981085
10319926 262 18341897415355152619
1100329 8 18410580586859225941
11135609 12 18339077193841987016
12035758 1 18341335517911506697
12107183 9 18410301306964043347
13140716 1 18341053003157227613
14866123 147 18335989735686148763
15042514 8 18410300215899931757
15131766 46 15624785411136496104
15537594 2 17894632517921483410
1813 80 17967535628270432548
18603816 31 16588306111714570659
20028762 73 18202569458605911511
21033648 29 17560222700922275914
21267235 1 18340215076997820492
21521239 73 13695593226494534760
21792934 111 18271802363463215817
22122407 14 15697993046696727122
23559900 14 18340486767717355157
23569914 152 12110548262754726986
3004659 81 18114474383490966340
3178227 256 18336283258119562097
335352 9 18411426098732582533
3383291 50 18411139121966439187
3882209 13 17264378412770275454
397830 11 18130503136730142786
50009960 94 17684628202304312418
5104073 3 18340486784702110729
5486654 36 18334299802929227327

> <PUBCHEM_SHAPE_MULTIPOLES>
558.39
18.56
3.67
1.58
0.91
1.25
1.1
7.15
9.51
4.62
0.05
-3.57
0.24
1.11

> <PUBCHEM_SHAPE_SELFOVERLAP>
1186.285

> <PUBCHEM_SHAPE_VOLUME>
308.9

> <PUBCHEM_COORDINATE_TYPE>
2
5
10

> <minimizedAffinity>
-4.89574

> <CNNscore>
0.2470516711

> <CNNaffinity>
5.1138796806

> <CNN_VS>
1.2633925676

> <CNNaffinity_variance>
0.8220646381

$$$$
